                                   MODFLOW 6
                U.S. GEOLOGICAL SURVEY MODULAR HYDROLOGIC MODEL
                            VERSION 6.2.0 10/22/2020

   MODFLOW 6 compiled Oct 22 2020 09:26:42 with IFORT compiler (ver. 19.10.2)

This software has been approved for release by the U.S. Geological 
Survey (USGS). Although the software has been subjected to rigorous 
review, the USGS reserves the right to update the software as needed 
pursuant to further analysis and review. No warranty, expressed or 
implied, is made by the USGS or the U.S. Government as to the 
functionality of the software and related material nor shall the 
fact of release constitute any such warranty. Furthermore, the 
software is released on condition that neither the USGS nor the U.S. 
Government shall be held liable for any damages resulting from its 
authorized or unauthorized use. Also refer to the USGS Water 
Resources Software User Rights Notice for complete use, copyright, 
and distribution information.


System command used to initiate simulation:
mf6  mfsim.nam

MODFLOW was compiled using uniform precision.

Real Variables
  KIND: 8
  TINY (smallest non-zero value):    2.225074-308
  HUGE (largest value):    1.797693+308
  PRECISION: 15
  BIT SIZE: 64

Integer Variables
  KIND: 4
  HUGE (largest value): 2147483647
  BIT SIZE: 32

Long Integer Variables
  KIND: 8
  HUGE (largest value): 9223372036854775807
  BIT SIZE: 64

Logical Variables
  KIND: 4
  BIT SIZE: 32
 

 OPENED mfsim.nam
 FILE TYPE:NAM   UNIT 1001   STATUS:OLD                 
 FORMAT:FORMATTED              ACCESS:SEQUENTIAL          
 ACTION:READ                

 # File generated by Flopy version 3.3.3 on 02/11/2021 at 12:42:15.

 READING SIMULATION OPTIONS
 END OF SIMULATION OPTIONS

 READING SIMULATION TIMING

 OPENED model.tdis
 FILE TYPE:TDIS   UNIT 1002   STATUS:OLD                 
 FORMAT:FORMATTED              ACCESS:SEQUENTIAL          
 ACTION:READ                


 TDIS -- TEMPORAL DISCRETIZATION PACKAGE,
 VERSION 1 : 11/13/2014 - INPUT READ FROM UNIT 1002
 # File generated by Flopy version 3.3.3 on 02/11/2021 at 12:42:15.
 PROCESSING TDIS OPTIONS
    SIMULATION TIME UNIT IS DAYS
    SIMULATION STARTING DATE AND TIME IS 1999-12-31                    
 END OF TDIS OPTIONS
 PROCESSING TDIS DIMENSIONS
    2 STRESS PERIOD(S) IN SIMULATION
 END OF TDIS DIMENSIONS
 PROCESSING TDIS PERIODDATA


 STRESS PERIOD     LENGTH       TIME STEPS     MULTIPLIER FOR DELT
 ----------------------------------------------------------------------------
        1         0.000000          1                    1.000
        2         3653.000        120                    1.000

 PERLEN IS ZERO FOR STRESS PERIOD 1. PERLEN MUST NOT BE ZERO FOR TRANSIENT PERIODS.
 END OF TDIS PERIODDATA
 END OF SIMULATION TIMING

 READING SIMULATION MODELS
    GWF6 model MODEL will be created as model 1
 END OF SIMULATION MODELS

 READING SIMULATION EXCHANGES
 END OF SIMULATION EXCHANGES

 READING SOLUTIONGROUP

 Creating solution: SLN_1           

 OPENED model.ims
 FILE TYPE:IMS   UNIT 1018   STATUS:OLD                 
 FORMAT:FORMATTED              ACCESS:SEQUENTIAL          
 ACTION:READ                

 END OF SIMULATION SOLUTIONGROUP

 IMS -- ITERATIVE MODEL SOLUTION PACKAGE, VERSION 6, 4/28/2017
         INPUT READ FROM UNIT 1018
 # File generated by Flopy version 3.3.3 on 02/11/2021 at 12:42:15.

 PROCESSING IMS OPTIONS
 SIMPLE OPTION:
 DEFAULT SOLVER INPUT VALUES FOR FAST SOLUTIONS
 END OF IMS OPTIONS

 PROCESSING IMS NONLINEAR
 END OF IMS NONLINEAR DATA
 ***UNDER-RELAXATION WILL NOT BE USED***
 
 ***IMS LINEAR SOLVER WILL BE USED***

 IMSLINEAR -- UNSTRUCTURED LINEAR SOLUTION PACKAGE, VERSION 8, 04/28/2017

 PROCESSING LINEAR DATA
 END OF LINEAR DATA
 
 OUTER ITERATION CONVERGENCE CRITERION    (DVCLOSE) =    0.100000E-04
 MAXIMUM NUMBER OF OUTER ITERATIONS        (MXITER) = 100
 SOLVER PRINTOUT INDEX                     (IPRIMS) = 1
 NONLINEAR ITERATION METHOD            (NONLINMETH) = 0
 LINEAR SOLUTION METHOD                   (LINMETH) = 1

       SOLUTION BY THE BICONJUGATE-GRADIENT STABILIZED METHOD
 ------------------------------------------------------------------
 MAXIMUM OF 100 CALLS OF SOLUTION ROUTINE
 MAXIMUM OF 100 INTERNAL ITERATIONS PER CALL TO SOLUTION ROUTINE
 LINEAR ACCELERATION METHOD            = BCGS      
 MATRIX PRECONDITIONING TYPE           = MOD. INCOMPLETE LU  
 MATRIX SCALING APPROACH               = NO SCALING          
 MATRIX REORDERING APPROACH            = ORIGINAL ORDERING        
 NUMBER OF ORTHOGONALIZATIONS          = 0
 HEAD CHANGE CRITERION FOR CLOSURE     =    0.10000E-05
 RESIDUAL CHANGE CRITERION FOR CLOSURE =    0.10000E+00
 RESIDUAL CONVERGENCE OPTION           = 0
 RESIDUAL CONVERGENCE NORM             = INFINITY NORM   
 RELAXATION FACTOR                     =    0.99000E+00



1
                            STRESS PERIOD NO.    1, LENGTH =   0.000000    
                            -----------------------------------------------

                              NUMBER OF TIME STEPS =     1

                               MULTIPLIER FOR DELT =     1.000

                            INITIAL TIME STEP SIZE =   0.000000    

 OUTER ITERATION SUMMARY
 ----------------------------------------------------------------------------------------------------------
                                OUTER      INNER                    STEP   MAXIMUM CHANGE MODEL-(CELLID) OR
 OUTER ITERATION STEP       ITERATION  ITERATION  MAXIMUM CHANGE SUCCESS             MODEL-PACKAGE-(NUMBER)
 ----------------------------------------------------------------------------------------------------------
 Model                              1         55      -20.696461                                1_GWF-(3,1)
 Model                              2         42       1.3472916                                1_GWF-(1,1)
 Model                              3         35     -0.20502731                             1_GWF-(1,2325)
 Model                              4         32 -7.83493627E-02                             1_GWF-(1,2771)
 Model                              5         18 -6.14386438E-04                                1_GWF-(1,1)
 Model                              6          6 -1.17130171E-05                               1_GWF-(1,13)
 Model                              7          1 -6.48424646E-07       *                      1_GWF-(2,253)
 ----------------------------------------------------------------------------------------------------------


 7 CALLS TO NUMERICAL SOLUTION IN TIME STEP 1 STRESS PERIOD 1
 189 TOTAL ITERATIONS
1
                            STRESS PERIOD NO.    2, LENGTH =   3653.000    
                            -----------------------------------------------

                              NUMBER OF TIME STEPS =   120

                               MULTIPLIER FOR DELT =     1.000

                            INITIAL TIME STEP SIZE =   30.44167    

 OUTER ITERATION SUMMARY
 ----------------------------------------------------------------------------------------------------------
                                OUTER      INNER                    STEP   MAXIMUM CHANGE MODEL-(CELLID) OR
 OUTER ITERATION STEP       ITERATION  ITERATION  MAXIMUM CHANGE SUCCESS             MODEL-PACKAGE-(NUMBER)
 ----------------------------------------------------------------------------------------------------------
 Model                              1         33      0.60988188                              1_GWF-(3,710)
 Model                              2         19 -8.87577538E-03                             1_GWF-(1,3264)
 Model                              3          6 -1.96834700E-05                             1_GWF-(1,4354)
 Model                              4          3 -1.68534707E-06       *                     1_GWF-(3,4981)
 ----------------------------------------------------------------------------------------------------------


 4 CALLS TO NUMERICAL SOLUTION IN TIME STEP 1 STRESS PERIOD 2
 61 TOTAL ITERATIONS

 OUTER ITERATION SUMMARY
 ----------------------------------------------------------------------------------------------------------
                                OUTER      INNER                    STEP   MAXIMUM CHANGE MODEL-(CELLID) OR
 OUTER ITERATION STEP       ITERATION  ITERATION  MAXIMUM CHANGE SUCCESS             MODEL-PACKAGE-(NUMBER)
 ----------------------------------------------------------------------------------------------------------
 Model                              1         32      0.13352912                             1_GWF-(1,3937)
 Model                              2         14 -1.16548276E-03                             1_GWF-(1,4512)
 Model                              3          8 -1.84560101E-05                             1_GWF-(1,4588)
 Model                              4          3 -2.55713739E-06       *                     1_GWF-(3,4921)
 ----------------------------------------------------------------------------------------------------------


 4 CALLS TO NUMERICAL SOLUTION IN TIME STEP 2 STRESS PERIOD 2
 57 TOTAL ITERATIONS

 OUTER ITERATION SUMMARY
 ----------------------------------------------------------------------------------------------------------
                                OUTER      INNER                    STEP   MAXIMUM CHANGE MODEL-(CELLID) OR
 OUTER ITERATION STEP       ITERATION  ITERATION  MAXIMUM CHANGE SUCCESS             MODEL-PACKAGE-(NUMBER)
 ----------------------------------------------------------------------------------------------------------
 Model                              1         23     -0.13680633                              1_GWF-(3,710)
 Model                              2         12  7.85307750E-04                             1_GWF-(1,4189)
 Model                              3          8  1.50152071E-05                             1_GWF-(3,4975)
 Model                              4          2  2.97535755E-06       *                     1_GWF-(3,4836)
 ----------------------------------------------------------------------------------------------------------


 4 CALLS TO NUMERICAL SOLUTION IN TIME STEP 3 STRESS PERIOD 2
 45 TOTAL ITERATIONS

 OUTER ITERATION SUMMARY
 ----------------------------------------------------------------------------------------------------------
                                OUTER      INNER                    STEP   MAXIMUM CHANGE MODEL-(CELLID) OR
 OUTER ITERATION STEP       ITERATION  ITERATION  MAXIMUM CHANGE SUCCESS             MODEL-PACKAGE-(NUMBER)
 ----------------------------------------------------------------------------------------------------------
 Model                              1         33      0.15130090                              1_GWF-(3,710)
 Model                              2         13 -3.07418593E-04                             1_GWF-(1,3939)
 Model                              3          2 -4.65250372E-06       *                     1_GWF-(1,4666)
 ----------------------------------------------------------------------------------------------------------


 3 CALLS TO NUMERICAL SOLUTION IN TIME STEP 4 STRESS PERIOD 2
 48 TOTAL ITERATIONS

 OUTER ITERATION SUMMARY
 ----------------------------------------------------------------------------------------------------------
                                OUTER      INNER                    STEP   MAXIMUM CHANGE MODEL-(CELLID) OR
 OUTER ITERATION STEP       ITERATION  ITERATION  MAXIMUM CHANGE SUCCESS             MODEL-PACKAGE-(NUMBER)
 ----------------------------------------------------------------------------------------------------------
 Model                              1         35      0.13841555                             1_GWF-(1,4094)
 Model                              2         17 -2.26808974E-02                             1_GWF-(1,3261)
 Model                              3          4  5.48428742E-05                             1_GWF-(1,3246)
 Model                              4          3 -1.81023067E-06       *                     1_GWF-(3,4923)
 ----------------------------------------------------------------------------------------------------------


 4 CALLS TO NUMERICAL SOLUTION IN TIME STEP 5 STRESS PERIOD 2
 59 TOTAL ITERATIONS

 OUTER ITERATION SUMMARY
 ----------------------------------------------------------------------------------------------------------
                                OUTER      INNER                    STEP   MAXIMUM CHANGE MODEL-(CELLID) OR
 OUTER ITERATION STEP       ITERATION  ITERATION  MAXIMUM CHANGE SUCCESS             MODEL-PACKAGE-(NUMBER)
 ----------------------------------------------------------------------------------------------------------
 Model                              1         38      -1.3995223                              1_GWF-(3,710)
 Model                              2         13  1.38763943E-03                              1_GWF-(1,708)
 Model                              3          8 -1.55906427E-05                             1_GWF-(1,4187)
 Model                              4          2  1.93176786E-06       *                     1_GWF-(3,4907)
 ----------------------------------------------------------------------------------------------------------


 4 CALLS TO NUMERICAL SOLUTION IN TIME STEP 6 STRESS PERIOD 2
 61 TOTAL ITERATIONS

 OUTER ITERATION SUMMARY
 ----------------------------------------------------------------------------------------------------------
                                OUTER      INNER                    STEP   MAXIMUM CHANGE MODEL-(CELLID) OR
 OUTER ITERATION STEP       ITERATION  ITERATION  MAXIMUM CHANGE SUCCESS             MODEL-PACKAGE-(NUMBER)
 ----------------------------------------------------------------------------------------------------------
 Model                              1         34      -2.3693937                             1_GWF-(3,4261)
 Model                              2         17 -7.86076501E-03                             1_GWF-(1,3261)
 Model                              3          8  2.62574974E-05                             1_GWF-(1,3247)
 Model                              4          1  6.27131911E-07       *                     1_GWF-(3,4836)
 ----------------------------------------------------------------------------------------------------------


 4 CALLS TO NUMERICAL SOLUTION IN TIME STEP 7 STRESS PERIOD 2
 60 TOTAL ITERATIONS

 OUTER ITERATION SUMMARY
 ----------------------------------------------------------------------------------------------------------
                                OUTER      INNER                    STEP   MAXIMUM CHANGE MODEL-(CELLID) OR
 OUTER ITERATION STEP       ITERATION  ITERATION  MAXIMUM CHANGE SUCCESS             MODEL-PACKAGE-(NUMBER)
 ----------------------------------------------------------------------------------------------------------
 Model                              1         34     -0.82923599                             1_GWF-(3,4261)
 Model                              2         17  1.24008333E-03                              1_GWF-(1,786)
 Model                              3          4  2.15323592E-05                             1_GWF-(1,4588)
 Model                              4          1  8.95627451E-07       *                       1_GWF-(3,66)
 ----------------------------------------------------------------------------------------------------------


 4 CALLS TO NUMERICAL SOLUTION IN TIME STEP 8 STRESS PERIOD 2
 56 TOTAL ITERATIONS

 OUTER ITERATION SUMMARY
 ----------------------------------------------------------------------------------------------------------
                                OUTER      INNER                    STEP   MAXIMUM CHANGE MODEL-(CELLID) OR
 OUTER ITERATION STEP       ITERATION  ITERATION  MAXIMUM CHANGE SUCCESS             MODEL-PACKAGE-(NUMBER)
 ----------------------------------------------------------------------------------------------------------
 Model                              1         34       1.3661563                             1_GWF-(3,4261)
 Model                              2         16 -1.57908717E-02                             1_GWF-(1,3264)
 Model                              3          7 -5.80769967E-05                             1_GWF-(1,3264)
 Model                              4          1  7.01006911E-07       *                       1_GWF-(3,50)
 ----------------------------------------------------------------------------------------------------------


 4 CALLS TO NUMERICAL SOLUTION IN TIME STEP 9 STRESS PERIOD 2
 58 TOTAL ITERATIONS

 OUTER ITERATION SUMMARY
 ----------------------------------------------------------------------------------------------------------
                                OUTER      INNER                    STEP   MAXIMUM CHANGE MODEL-(CELLID) OR
 OUTER ITERATION STEP       ITERATION  ITERATION  MAXIMUM CHANGE SUCCESS             MODEL-PACKAGE-(NUMBER)
 ----------------------------------------------------------------------------------------------------------
 Model                              1         30      0.89288023                             1_GWF-(3,4261)
 Model                              2         14  7.61995122E-04                             1_GWF-(1,4959)
 Model                              3          6  1.41909423E-05                             1_GWF-(1,4271)
 Model                              4          1  3.83509445E-07       *                       1_GWF-(3,63)
 ----------------------------------------------------------------------------------------------------------


 4 CALLS TO NUMERICAL SOLUTION IN TIME STEP 10 STRESS PERIOD 2
 51 TOTAL ITERATIONS

 OUTER ITERATION SUMMARY
 ----------------------------------------------------------------------------------------------------------
                                OUTER      INNER                    STEP   MAXIMUM CHANGE MODEL-(CELLID) OR
 OUTER ITERATION STEP       ITERATION  ITERATION  MAXIMUM CHANGE SUCCESS             MODEL-PACKAGE-(NUMBER)
 ----------------------------------------------------------------------------------------------------------
 Model                              1         35      0.44418818                              1_GWF-(3,710)
 Model                              2         14 -6.52585828E-04                              1_GWF-(1,709)
 Model                              3          6  1.16478458E-05                             1_GWF-(1,4666)
 Model                              4          1  4.38880392E-07       *                       1_GWF-(3,61)
 ----------------------------------------------------------------------------------------------------------


 4 CALLS TO NUMERICAL SOLUTION IN TIME STEP 11 STRESS PERIOD 2
 56 TOTAL ITERATIONS

 OUTER ITERATION SUMMARY
 ----------------------------------------------------------------------------------------------------------
                                OUTER      INNER                    STEP   MAXIMUM CHANGE MODEL-(CELLID) OR
 OUTER ITERATION STEP       ITERATION  ITERATION  MAXIMUM CHANGE SUCCESS             MODEL-PACKAGE-(NUMBER)
 ----------------------------------------------------------------------------------------------------------
 Model                              1         40      0.32931796                              1_GWF-(3,710)
 Model                              2         12 -1.29345866E-03                              1_GWF-(1,635)
 Model                              3          5  1.10128144E-05                             1_GWF-(1,4106)
 Model                              4          2  6.96712348E-07       *                       1_GWF-(3,70)
 ----------------------------------------------------------------------------------------------------------


 4 CALLS TO NUMERICAL SOLUTION IN TIME STEP 12 STRESS PERIOD 2
 59 TOTAL ITERATIONS

 OUTER ITERATION SUMMARY
 ----------------------------------------------------------------------------------------------------------
                                OUTER      INNER                    STEP   MAXIMUM CHANGE MODEL-(CELLID) OR
 OUTER ITERATION STEP       ITERATION  ITERATION  MAXIMUM CHANGE SUCCESS             MODEL-PACKAGE-(NUMBER)
 ----------------------------------------------------------------------------------------------------------
 Model                              1         35      0.38733922                              1_GWF-(1,638)
 Model                              2         17 -3.00190387E-03                              1_GWF-(1,635)
 Model                              3          9  2.41165766E-05                             1_GWF-(1,4350)
 Model                              4          2 -1.37674907E-06       *                     1_GWF-(3,4981)
 ----------------------------------------------------------------------------------------------------------


 4 CALLS TO NUMERICAL SOLUTION IN TIME STEP 13 STRESS PERIOD 2
 63 TOTAL ITERATIONS

 OUTER ITERATION SUMMARY
 ----------------------------------------------------------------------------------------------------------
                                OUTER      INNER                    STEP   MAXIMUM CHANGE MODEL-(CELLID) OR
 OUTER ITERATION STEP       ITERATION  ITERATION  MAXIMUM CHANGE SUCCESS             MODEL-PACKAGE-(NUMBER)
 ----------------------------------------------------------------------------------------------------------
 Model                              1         30      0.17852400                             1_GWF-(1,4017)
 Model                              2         17 -6.12582153E-03                             1_GWF-(1,3264)
 Model                              3          7 -2.17478998E-05                             1_GWF-(1,4436)
 Model                              4          2 -1.57868531E-06       *                     1_GWF-(3,4980)
 ----------------------------------------------------------------------------------------------------------


 4 CALLS TO NUMERICAL SOLUTION IN TIME STEP 14 STRESS PERIOD 2
 56 TOTAL ITERATIONS

 OUTER ITERATION SUMMARY
 ----------------------------------------------------------------------------------------------------------
                                OUTER      INNER                    STEP   MAXIMUM CHANGE MODEL-(CELLID) OR
 OUTER ITERATION STEP       ITERATION  ITERATION  MAXIMUM CHANGE SUCCESS             MODEL-PACKAGE-(NUMBER)
 ----------------------------------------------------------------------------------------------------------
 Model                              1         36      0.30354397                             1_GWF-(1,4017)
 Model                              2         17 -1.66767379E-02                             1_GWF-(1,3261)
 Model                              3          9 -3.84888979E-05                             1_GWF-(1,4588)
 Model                              4          3 -2.64203535E-06       *                     1_GWF-(3,4975)
 ----------------------------------------------------------------------------------------------------------


 4 CALLS TO NUMERICAL SOLUTION IN TIME STEP 15 STRESS PERIOD 2
 65 TOTAL ITERATIONS

 OUTER ITERATION SUMMARY
 ----------------------------------------------------------------------------------------------------------
                                OUTER      INNER                    STEP   MAXIMUM CHANGE MODEL-(CELLID) OR
 OUTER ITERATION STEP       ITERATION  ITERATION  MAXIMUM CHANGE SUCCESS             MODEL-PACKAGE-(NUMBER)
 ----------------------------------------------------------------------------------------------------------
 Model                              1         37      0.15269351                             1_GWF-(1,4959)
 Model                              2         16 -1.11253555E-02                             1_GWF-(1,1278)
 Model                              3         10  2.75195909E-05                             1_GWF-(1,1260)
 Model                              4          1 -6.89239585E-07       *                     1_GWF-(3,4981)
 ----------------------------------------------------------------------------------------------------------


 4 CALLS TO NUMERICAL SOLUTION IN TIME STEP 16 STRESS PERIOD 2
 64 TOTAL ITERATIONS

 OUTER ITERATION SUMMARY
 ----------------------------------------------------------------------------------------------------------
                                OUTER      INNER                    STEP   MAXIMUM CHANGE MODEL-(CELLID) OR
 OUTER ITERATION STEP       ITERATION  ITERATION  MAXIMUM CHANGE SUCCESS             MODEL-PACKAGE-(NUMBER)
 ----------------------------------------------------------------------------------------------------------
 Model                              1         37 -7.14246816E-02                              1_GWF-(1,638)
 Model                              2         20  1.31903090E-03                             1_GWF-(1,4189)
 Model                              3          5 -2.35438415E-05                             1_GWF-(1,4187)
 Model                              4          3  9.01357225E-07       *                     1_GWF-(3,4831)
 ----------------------------------------------------------------------------------------------------------


 4 CALLS TO NUMERICAL SOLUTION IN TIME STEP 17 STRESS PERIOD 2
 65 TOTAL ITERATIONS

 OUTER ITERATION SUMMARY
 ----------------------------------------------------------------------------------------------------------
                                OUTER      INNER                    STEP   MAXIMUM CHANGE MODEL-(CELLID) OR
 OUTER ITERATION STEP       ITERATION  ITERATION  MAXIMUM CHANGE SUCCESS             MODEL-PACKAGE-(NUMBER)
 ----------------------------------------------------------------------------------------------------------
 Model                              1         36     -0.59233799                              1_GWF-(3,710)
 Model                              2         17  1.38023207E-03                             1_GWF-(1,4352)
 Model                              3          8 -1.92105966E-05                             1_GWF-(1,4269)
 Model                              4          1  9.88545466E-07       *                     1_GWF-(3,4981)
 ----------------------------------------------------------------------------------------------------------


 4 CALLS TO NUMERICAL SOLUTION IN TIME STEP 18 STRESS PERIOD 2
 62 TOTAL ITERATIONS

 OUTER ITERATION SUMMARY
 ----------------------------------------------------------------------------------------------------------
                                OUTER      INNER                    STEP   MAXIMUM CHANGE MODEL-(CELLID) OR
 OUTER ITERATION STEP       ITERATION  ITERATION  MAXIMUM CHANGE SUCCESS             MODEL-PACKAGE-(NUMBER)
 ----------------------------------------------------------------------------------------------------------
 Model                              1         34     -0.24271674                              1_GWF-(3,710)
 Model                              2         19 -9.99974438E-03                             1_GWF-(1,1278)
 Model                              3          7 -3.91591732E-05                             1_GWF-(1,1278)
 Model                              4          2  1.18058622E-06       *                     1_GWF-(3,4831)
 ----------------------------------------------------------------------------------------------------------


 4 CALLS TO NUMERICAL SOLUTION IN TIME STEP 19 STRESS PERIOD 2
 62 TOTAL ITERATIONS

 OUTER ITERATION SUMMARY
 ----------------------------------------------------------------------------------------------------------
                                OUTER      INNER                    STEP   MAXIMUM CHANGE MODEL-(CELLID) OR
 OUTER ITERATION STEP       ITERATION  ITERATION  MAXIMUM CHANGE SUCCESS             MODEL-PACKAGE-(NUMBER)
 ----------------------------------------------------------------------------------------------------------
 Model                              1         31     -0.10638510                              1_GWF-(1,710)
 Model                              2         15 -4.40019397E-03                             1_GWF-(1,3261)
 Model                              3          2  1.74195504E-05                             1_GWF-(1,3246)
 Model                              4          5  4.49827239E-06       *                     1_GWF-(3,4918)
 ----------------------------------------------------------------------------------------------------------


 4 CALLS TO NUMERICAL SOLUTION IN TIME STEP 20 STRESS PERIOD 2
 53 TOTAL ITERATIONS

 OUTER ITERATION SUMMARY
 ----------------------------------------------------------------------------------------------------------
                                OUTER      INNER                    STEP   MAXIMUM CHANGE MODEL-(CELLID) OR
 OUTER ITERATION STEP       ITERATION  ITERATION  MAXIMUM CHANGE SUCCESS             MODEL-PACKAGE-(NUMBER)
 ----------------------------------------------------------------------------------------------------------
 Model                              1         36      0.15889336                              1_GWF-(3,710)
 Model                              2         13  7.28614162E-04                             1_GWF-(1,4960)
 Model                              3          7  1.37339257E-05                             1_GWF-(1,4667)
 Model                              4          2  1.85732549E-06       *                     1_GWF-(3,4918)
 ----------------------------------------------------------------------------------------------------------


 4 CALLS TO NUMERICAL SOLUTION IN TIME STEP 21 STRESS PERIOD 2
 58 TOTAL ITERATIONS

 OUTER ITERATION SUMMARY
 ----------------------------------------------------------------------------------------------------------
                                OUTER      INNER                    STEP   MAXIMUM CHANGE MODEL-(CELLID) OR
 OUTER ITERATION STEP       ITERATION  ITERATION  MAXIMUM CHANGE SUCCESS             MODEL-PACKAGE-(NUMBER)
 ----------------------------------------------------------------------------------------------------------
 Model                              1         32      0.52795717                              1_GWF-(3,710)
 Model                              2         17 -1.27745867E-03                              1_GWF-(1,635)
 Model                              3          5  1.32227639E-05                             1_GWF-(1,4187)
 Model                              4          2 -1.20829824E-06       *                     1_GWF-(3,4836)
 ----------------------------------------------------------------------------------------------------------


 4 CALLS TO NUMERICAL SOLUTION IN TIME STEP 22 STRESS PERIOD 2
 56 TOTAL ITERATIONS

 OUTER ITERATION SUMMARY
 ----------------------------------------------------------------------------------------------------------
                                OUTER      INNER                    STEP   MAXIMUM CHANGE MODEL-(CELLID) OR
 OUTER ITERATION STEP       ITERATION  ITERATION  MAXIMUM CHANGE SUCCESS             MODEL-PACKAGE-(NUMBER)
 ----------------------------------------------------------------------------------------------------------
 Model                              1         32      0.20025674                              1_GWF-(1,637)
 Model                              2         19 -2.59042383E-02                             1_GWF-(1,3261)
 Model                              3         10  6.24907945E-05                             1_GWF-(1,3246)
 Model                              4          1 -8.07836244E-07       *                     1_GWF-(3,4975)
 ----------------------------------------------------------------------------------------------------------


 4 CALLS TO NUMERICAL SOLUTION IN TIME STEP 23 STRESS PERIOD 2
 62 TOTAL ITERATIONS

 OUTER ITERATION SUMMARY
 ----------------------------------------------------------------------------------------------------------
                                OUTER      INNER                    STEP   MAXIMUM CHANGE MODEL-(CELLID) OR
 OUTER ITERATION STEP       ITERATION  ITERATION  MAXIMUM CHANGE SUCCESS             MODEL-PACKAGE-(NUMBER)
 ----------------------------------------------------------------------------------------------------------
 Model                              1         37      0.62480608                             1_GWF-(1,4176)
 Model                              2         29 -6.83021720E-03                             1_GWF-(1,4094)
 Model                              3          8 -8.23660373E-05                             1_GWF-(1,2330)
 Model                              4          3  2.56761903E-06       *                     1_GWF-(1,4435)
 ----------------------------------------------------------------------------------------------------------


 4 CALLS TO NUMERICAL SOLUTION IN TIME STEP 24 STRESS PERIOD 2
 77 TOTAL ITERATIONS

 OUTER ITERATION SUMMARY
 ----------------------------------------------------------------------------------------------------------
                                OUTER      INNER                    STEP   MAXIMUM CHANGE MODEL-(CELLID) OR
 OUTER ITERATION STEP       ITERATION  ITERATION  MAXIMUM CHANGE SUCCESS             MODEL-PACKAGE-(NUMBER)
 ----------------------------------------------------------------------------------------------------------
 Model                              1         33      0.54423848                             1_GWF-(1,4016)
 Model                              2         25     -0.20732900                              1_GWF-(1,186)
 Model                              3         14 -3.02997184E-02                              1_GWF-(1,266)
 Model                              4          8 -8.31692512E-05                              1_GWF-(1,267)
 Model                              5          1 -2.02908296E-07       *                       1_GWF-(3,63)
 ----------------------------------------------------------------------------------------------------------


 5 CALLS TO NUMERICAL SOLUTION IN TIME STEP 25 STRESS PERIOD 2
 81 TOTAL ITERATIONS

 OUTER ITERATION SUMMARY
 ----------------------------------------------------------------------------------------------------------
                                OUTER      INNER                    STEP   MAXIMUM CHANGE MODEL-(CELLID) OR
 OUTER ITERATION STEP       ITERATION  ITERATION  MAXIMUM CHANGE SUCCESS             MODEL-PACKAGE-(NUMBER)
 ----------------------------------------------------------------------------------------------------------
 Model                              1         34      0.18290407                             1_GWF-(1,4431)
 Model                              2         17 -3.33918776E-02                               1_GWF-(1,27)
 Model                              3          7 -5.38293031E-05                             1_GWF-(1,4106)
 Model                              4          2 -1.92426835E-06       *                       1_GWF-(3,70)
 ----------------------------------------------------------------------------------------------------------


 4 CALLS TO NUMERICAL SOLUTION IN TIME STEP 26 STRESS PERIOD 2
 60 TOTAL ITERATIONS

 OUTER ITERATION SUMMARY
 ----------------------------------------------------------------------------------------------------------
                                OUTER      INNER                    STEP   MAXIMUM CHANGE MODEL-(CELLID) OR
 OUTER ITERATION STEP       ITERATION  ITERATION  MAXIMUM CHANGE SUCCESS             MODEL-PACKAGE-(NUMBER)
 ----------------------------------------------------------------------------------------------------------
 Model                              1         38      0.11846028                                1_GWF-(1,3)
 Model                              2         18 -1.79769672E-02                              1_GWF-(1,111)
 Model                              3         10 -4.22844277E-05                             1_GWF-(1,4269)
 Model                              4          2  1.53275164E-06       *                     1_GWF-(3,4975)
 ----------------------------------------------------------------------------------------------------------


 4 CALLS TO NUMERICAL SOLUTION IN TIME STEP 27 STRESS PERIOD 2
 68 TOTAL ITERATIONS

 OUTER ITERATION SUMMARY
 ----------------------------------------------------------------------------------------------------------
                                OUTER      INNER                    STEP   MAXIMUM CHANGE MODEL-(CELLID) OR
 OUTER ITERATION STEP       ITERATION  ITERATION  MAXIMUM CHANGE SUCCESS             MODEL-PACKAGE-(NUMBER)
 ----------------------------------------------------------------------------------------------------------
 Model                              1         33      0.10093086                                1_GWF-(1,4)
 Model                              2         18 -2.00175968E-03                              1_GWF-(1,337)
 Model                              3          7 -2.80281685E-05                             1_GWF-(1,4269)
 Model                              4          3  1.92573404E-06       *                     1_GWF-(3,4980)
 ----------------------------------------------------------------------------------------------------------


 4 CALLS TO NUMERICAL SOLUTION IN TIME STEP 28 STRESS PERIOD 2
 61 TOTAL ITERATIONS

 OUTER ITERATION SUMMARY
 ----------------------------------------------------------------------------------------------------------
                                OUTER      INNER                    STEP   MAXIMUM CHANGE MODEL-(CELLID) OR
 OUTER ITERATION STEP       ITERATION  ITERATION  MAXIMUM CHANGE SUCCESS             MODEL-PACKAGE-(NUMBER)
 ----------------------------------------------------------------------------------------------------------
 Model                              1         36     -0.78147716                              1_GWF-(3,710)
 Model                              2         30 -3.80783559E-02                              1_GWF-(1,337)
 Model                              3         10 -1.11356462E-04                              1_GWF-(1,338)
 Model                              4          2 -1.60070213E-06       *                     1_GWF-(1,4271)
 ----------------------------------------------------------------------------------------------------------


 4 CALLS TO NUMERICAL SOLUTION IN TIME STEP 29 STRESS PERIOD 2
 78 TOTAL ITERATIONS

 OUTER ITERATION SUMMARY
 ----------------------------------------------------------------------------------------------------------
                                OUTER      INNER                    STEP   MAXIMUM CHANGE MODEL-(CELLID) OR
 OUTER ITERATION STEP       ITERATION  ITERATION  MAXIMUM CHANGE SUCCESS             MODEL-PACKAGE-(NUMBER)
 ----------------------------------------------------------------------------------------------------------
 Model                              1         39      -1.3149942                              1_GWF-(3,710)
 Model                              2         18 -2.11439198E-02                              1_GWF-(1,264)
 Model                              3          7 -5.85850934E-05                              1_GWF-(1,265)
 Model                              4          3  4.01982527E-06       *                     1_GWF-(3,4977)
 ----------------------------------------------------------------------------------------------------------


 4 CALLS TO NUMERICAL SOLUTION IN TIME STEP 30 STRESS PERIOD 2
 67 TOTAL ITERATIONS

 OUTER ITERATION SUMMARY
 ----------------------------------------------------------------------------------------------------------
                                OUTER      INNER                    STEP   MAXIMUM CHANGE MODEL-(CELLID) OR
 OUTER ITERATION STEP       ITERATION  ITERATION  MAXIMUM CHANGE SUCCESS             MODEL-PACKAGE-(NUMBER)
 ----------------------------------------------------------------------------------------------------------
 Model                              1         34      -2.8415537                             1_GWF-(3,4261)
 Model                              2         16 -3.25792573E-02                              1_GWF-(1,109)
 Model                              3          9  8.91271655E-05                              1_GWF-(1,108)
 Model                              4          2  2.94076742E-06       *                     1_GWF-(3,4981)
 ----------------------------------------------------------------------------------------------------------


 4 CALLS TO NUMERICAL SOLUTION IN TIME STEP 31 STRESS PERIOD 2
 61 TOTAL ITERATIONS

 OUTER ITERATION SUMMARY
 ----------------------------------------------------------------------------------------------------------
                                OUTER      INNER                    STEP   MAXIMUM CHANGE MODEL-(CELLID) OR
 OUTER ITERATION STEP       ITERATION  ITERATION  MAXIMUM CHANGE SUCCESS             MODEL-PACKAGE-(NUMBER)
 ----------------------------------------------------------------------------------------------------------
 Model                              1         35      0.69649549                             1_GWF-(3,4261)
 Model                              2         16 -6.54386120E-03                              1_GWF-(1,186)
 Model                              3         10  4.12794052E-05                             1_GWF-(1,4667)
 Model                              4          2  2.14855153E-06       *                     1_GWF-(3,4981)
 ----------------------------------------------------------------------------------------------------------


 4 CALLS TO NUMERICAL SOLUTION IN TIME STEP 32 STRESS PERIOD 2
 63 TOTAL ITERATIONS

 OUTER ITERATION SUMMARY
 ----------------------------------------------------------------------------------------------------------
                                OUTER      INNER                    STEP   MAXIMUM CHANGE MODEL-(CELLID) OR
 OUTER ITERATION STEP       ITERATION  ITERATION  MAXIMUM CHANGE SUCCESS             MODEL-PACKAGE-(NUMBER)
 ----------------------------------------------------------------------------------------------------------
 Model                              1         35       1.3548911                             1_GWF-(3,4261)
 Model                              2         17 -9.47407899E-03                              1_GWF-(1,110)
 Model                              3          5  3.17313696E-05                             1_GWF-(1,4667)
 Model                              4          3  1.59341700E-06       *                     1_GWF-(3,4836)
 ----------------------------------------------------------------------------------------------------------


 4 CALLS TO NUMERICAL SOLUTION IN TIME STEP 33 STRESS PERIOD 2
 60 TOTAL ITERATIONS

 OUTER ITERATION SUMMARY
 ----------------------------------------------------------------------------------------------------------
                                OUTER      INNER                    STEP   MAXIMUM CHANGE MODEL-(CELLID) OR
 OUTER ITERATION STEP       ITERATION  ITERATION  MAXIMUM CHANGE SUCCESS             MODEL-PACKAGE-(NUMBER)
 ----------------------------------------------------------------------------------------------------------
 Model                              1         32      0.99684029                             1_GWF-(3,4261)
 Model                              2         17 -1.66768371E-03                              1_GWF-(1,636)
 Model                              3          7  2.24453010E-05                             1_GWF-(1,4106)
 Model                              4          2  4.03677191E-07       *                     1_GWF-(3,4376)
 ----------------------------------------------------------------------------------------------------------


 4 CALLS TO NUMERICAL SOLUTION IN TIME STEP 34 STRESS PERIOD 2
 58 TOTAL ITERATIONS

 OUTER ITERATION SUMMARY
 ----------------------------------------------------------------------------------------------------------
                                OUTER      INNER                    STEP   MAXIMUM CHANGE MODEL-(CELLID) OR
 OUTER ITERATION STEP       ITERATION  ITERATION  MAXIMUM CHANGE SUCCESS             MODEL-PACKAGE-(NUMBER)
 ----------------------------------------------------------------------------------------------------------
 Model                              1         34  7.10243662E-02                              1_GWF-(1,710)
 Model                              2         12 -8.92372247E-04                              1_GWF-(1,709)
 Model                              3          5  1.71408746E-05                             1_GWF-(1,4106)
 Model                              4          1 -9.18825890E-07       *                       1_GWF-(3,70)
 ----------------------------------------------------------------------------------------------------------


 4 CALLS TO NUMERICAL SOLUTION IN TIME STEP 35 STRESS PERIOD 2
 52 TOTAL ITERATIONS

 OUTER ITERATION SUMMARY
 ----------------------------------------------------------------------------------------------------------
                                OUTER      INNER                    STEP   MAXIMUM CHANGE MODEL-(CELLID) OR
 OUTER ITERATION STEP       ITERATION  ITERATION  MAXIMUM CHANGE SUCCESS             MODEL-PACKAGE-(NUMBER)
 ----------------------------------------------------------------------------------------------------------
 Model                              1         30      0.20705680                             1_GWF-(1,4176)
 Model                              2         19 -6.32944300E-02                              1_GWF-(1,186)
 Model                              3          6  5.12496907E-05                              1_GWF-(1,108)
 Model                              4          3  1.20108145E-06       *                     1_GWF-(2,4190)
 ----------------------------------------------------------------------------------------------------------


 4 CALLS TO NUMERICAL SOLUTION IN TIME STEP 36 STRESS PERIOD 2
 58 TOTAL ITERATIONS

 OUTER ITERATION SUMMARY
 ----------------------------------------------------------------------------------------------------------
                                OUTER      INNER                    STEP   MAXIMUM CHANGE MODEL-(CELLID) OR
 OUTER ITERATION STEP       ITERATION  ITERATION  MAXIMUM CHANGE SUCCESS             MODEL-PACKAGE-(NUMBER)
 ----------------------------------------------------------------------------------------------------------
 Model                              1         31      0.16533897                             1_GWF-(1,4017)
 Model                              2         21 -3.11544091E-02                               1_GWF-(1,28)
 Model                              3          5 -2.76619850E-05                             1_GWF-(1,4588)
 Model                              4          2 -1.56949997E-06       *                     1_GWF-(3,4296)
 ----------------------------------------------------------------------------------------------------------


 4 CALLS TO NUMERICAL SOLUTION IN TIME STEP 37 STRESS PERIOD 2
 59 TOTAL ITERATIONS

 OUTER ITERATION SUMMARY
 ----------------------------------------------------------------------------------------------------------
                                OUTER      INNER                    STEP   MAXIMUM CHANGE MODEL-(CELLID) OR
 OUTER ITERATION STEP       ITERATION  ITERATION  MAXIMUM CHANGE SUCCESS             MODEL-PACKAGE-(NUMBER)
 ----------------------------------------------------------------------------------------------------------
 Model                              1         29  5.78032505E-02                             1_GWF-(1,4015)
 Model                              2         14 -6.14607855E-04                              1_GWF-(1,341)
 Model                              3          5 -1.01565248E-05                             1_GWF-(1,4106)
 Model                              4          1  7.21722813E-07       *                       1_GWF-(3,70)
 ----------------------------------------------------------------------------------------------------------


 4 CALLS TO NUMERICAL SOLUTION IN TIME STEP 38 STRESS PERIOD 2
 49 TOTAL ITERATIONS

 OUTER ITERATION SUMMARY
 ----------------------------------------------------------------------------------------------------------
                                OUTER      INNER                    STEP   MAXIMUM CHANGE MODEL-(CELLID) OR
 OUTER ITERATION STEP       ITERATION  ITERATION  MAXIMUM CHANGE SUCCESS             MODEL-PACKAGE-(NUMBER)
 ----------------------------------------------------------------------------------------------------------
 Model                              1         32  9.14178742E-02                             1_GWF-(1,3936)
 Model                              2         18 -2.13788576E-02                              1_GWF-(1,185)
 Model                              3          5  2.56396858E-05                              1_GWF-(1,107)
 Model                              4          2 -1.32725260E-06       *                      1_GWF-(3,210)
 ----------------------------------------------------------------------------------------------------------


 4 CALLS TO NUMERICAL SOLUTION IN TIME STEP 39 STRESS PERIOD 2
 57 TOTAL ITERATIONS

 OUTER ITERATION SUMMARY
 ----------------------------------------------------------------------------------------------------------
                                OUTER      INNER                    STEP   MAXIMUM CHANGE MODEL-(CELLID) OR
 OUTER ITERATION STEP       ITERATION  ITERATION  MAXIMUM CHANGE SUCCESS             MODEL-PACKAGE-(NUMBER)
 ----------------------------------------------------------------------------------------------------------
 Model                              1         31  9.53538239E-02                              1_GWF-(1,311)
 Model                              2         18 -1.03968171E-02                               1_GWF-(1,27)
 Model                              3          4 -1.70746634E-05                             1_GWF-(1,4667)
 Model                              4          1 -7.70739959E-07       *                     1_GWF-(2,1571)
 ----------------------------------------------------------------------------------------------------------


 4 CALLS TO NUMERICAL SOLUTION IN TIME STEP 40 STRESS PERIOD 2
 54 TOTAL ITERATIONS

 OUTER ITERATION SUMMARY
 ----------------------------------------------------------------------------------------------------------
                                OUTER      INNER                    STEP   MAXIMUM CHANGE MODEL-(CELLID) OR
 OUTER ITERATION STEP       ITERATION  ITERATION  MAXIMUM CHANGE SUCCESS             MODEL-PACKAGE-(NUMBER)
 ----------------------------------------------------------------------------------------------------------
 Model                              1         36     -0.50984494                              1_GWF-(3,710)
 Model                              2         14  7.68436376E-04                              1_GWF-(1,709)
 Model                              3          4 -1.26066489E-05                             1_GWF-(1,4106)
 Model                              4          1 -8.61528335E-07       *                     1_GWF-(2,1574)
 ----------------------------------------------------------------------------------------------------------


 4 CALLS TO NUMERICAL SOLUTION IN TIME STEP 41 STRESS PERIOD 2
 55 TOTAL ITERATIONS

 OUTER ITERATION SUMMARY
 ----------------------------------------------------------------------------------------------------------
                                OUTER      INNER                    STEP   MAXIMUM CHANGE MODEL-(CELLID) OR
 OUTER ITERATION STEP       ITERATION  ITERATION  MAXIMUM CHANGE SUCCESS             MODEL-PACKAGE-(NUMBER)
 ----------------------------------------------------------------------------------------------------------
 Model                              1         40      -1.7872222                              1_GWF-(3,710)
 Model                              2         16 -4.24226363E-02                              1_GWF-(1,265)
 Model                              3          9  1.12125925E-04                               1_GWF-(1,26)
 Model                              4          2  2.35460226E-06       *                     1_GWF-(3,4977)
 ----------------------------------------------------------------------------------------------------------


 4 CALLS TO NUMERICAL SOLUTION IN TIME STEP 42 STRESS PERIOD 2
 67 TOTAL ITERATIONS

 OUTER ITERATION SUMMARY
 ----------------------------------------------------------------------------------------------------------
                                OUTER      INNER                    STEP   MAXIMUM CHANGE MODEL-(CELLID) OR
 OUTER ITERATION STEP       ITERATION  ITERATION  MAXIMUM CHANGE SUCCESS             MODEL-PACKAGE-(NUMBER)
 ----------------------------------------------------------------------------------------------------------
 Model                              1         38      -2.4489353                             1_GWF-(3,4261)
 Model                              2         17 -2.34253901E-02                               1_GWF-(1,28)
 Model                              3          6  4.93081550E-05                               1_GWF-(1,27)
 Model                              4          3  3.26152981E-06       *                     1_GWF-(3,4981)
 ----------------------------------------------------------------------------------------------------------


 4 CALLS TO NUMERICAL SOLUTION IN TIME STEP 43 STRESS PERIOD 2
 64 TOTAL ITERATIONS

 OUTER ITERATION SUMMARY
 ----------------------------------------------------------------------------------------------------------
                                OUTER      INNER                    STEP   MAXIMUM CHANGE MODEL-(CELLID) OR
 OUTER ITERATION STEP       ITERATION  ITERATION  MAXIMUM CHANGE SUCCESS             MODEL-PACKAGE-(NUMBER)
 ----------------------------------------------------------------------------------------------------------
 Model                              1         32      0.46557852                             1_GWF-(3,4261)
 Model                              2         18 -1.13437043E-02                              1_GWF-(1,110)
 Model                              3          7  2.87227256E-05                             1_GWF-(1,4667)
 Model                              4          2  1.22666840E-06       *                     1_GWF-(3,4836)
 ----------------------------------------------------------------------------------------------------------


 4 CALLS TO NUMERICAL SOLUTION IN TIME STEP 44 STRESS PERIOD 2
 59 TOTAL ITERATIONS

 OUTER ITERATION SUMMARY
 ----------------------------------------------------------------------------------------------------------
                                OUTER      INNER                    STEP   MAXIMUM CHANGE MODEL-(CELLID) OR
 OUTER ITERATION STEP       ITERATION  ITERATION  MAXIMUM CHANGE SUCCESS             MODEL-PACKAGE-(NUMBER)
 ----------------------------------------------------------------------------------------------------------
 Model                              1         32      0.37379402                             1_GWF-(3,4261)
 Model                              2         17  1.07795102E-03                             1_GWF-(1,4886)
 Model                              3          5  2.34909532E-05                             1_GWF-(1,4667)
 Model                              4          1  6.36574953E-07       *                     1_GWF-(3,4836)
 ----------------------------------------------------------------------------------------------------------


 4 CALLS TO NUMERICAL SOLUTION IN TIME STEP 45 STRESS PERIOD 2
 55 TOTAL ITERATIONS

 OUTER ITERATION SUMMARY
 ----------------------------------------------------------------------------------------------------------
                                OUTER      INNER                    STEP   MAXIMUM CHANGE MODEL-(CELLID) OR
 OUTER ITERATION STEP       ITERATION  ITERATION  MAXIMUM CHANGE SUCCESS             MODEL-PACKAGE-(NUMBER)
 ----------------------------------------------------------------------------------------------------------
 Model                              1         32       1.9960795                             1_GWF-(3,4261)
 Model                              2         14 -1.32595365E-03                              1_GWF-(1,709)
 Model                              3          6  1.89696891E-05                             1_GWF-(1,4666)
 Model                              4          1  4.44659463E-07       *                     1_GWF-(3,4549)
 ----------------------------------------------------------------------------------------------------------


 4 CALLS TO NUMERICAL SOLUTION IN TIME STEP 46 STRESS PERIOD 2
 53 TOTAL ITERATIONS

 OUTER ITERATION SUMMARY
 ----------------------------------------------------------------------------------------------------------
                                OUTER      INNER                    STEP   MAXIMUM CHANGE MODEL-(CELLID) OR
 OUTER ITERATION STEP       ITERATION  ITERATION  MAXIMUM CHANGE SUCCESS             MODEL-PACKAGE-(NUMBER)
 ----------------------------------------------------------------------------------------------------------
 Model                              1         34      0.12555752                              1_GWF-(3,710)
 Model                              2         14 -1.30428335E-03                              1_GWF-(1,635)
 Model                              3          5  1.66712377E-05                             1_GWF-(1,4106)
 Model                              4          2 -6.67471497E-07       *                       1_GWF-(3,70)
 ----------------------------------------------------------------------------------------------------------


 4 CALLS TO NUMERICAL SOLUTION IN TIME STEP 47 STRESS PERIOD 2
 55 TOTAL ITERATIONS

 OUTER ITERATION SUMMARY
 ----------------------------------------------------------------------------------------------------------
                                OUTER      INNER                    STEP   MAXIMUM CHANGE MODEL-(CELLID) OR
 OUTER ITERATION STEP       ITERATION  ITERATION  MAXIMUM CHANGE SUCCESS             MODEL-PACKAGE-(NUMBER)
 ----------------------------------------------------------------------------------------------------------
 Model                              1         34      0.24777188                              1_GWF-(1,638)
 Model                              2         16 -2.18681007E-03                              1_GWF-(1,635)
 Model                              3          7  2.13025855E-05                             1_GWF-(1,4187)
 Model                              4          1 -5.75379431E-07       *                     1_GWF-(3,4981)
 ----------------------------------------------------------------------------------------------------------


 4 CALLS TO NUMERICAL SOLUTION IN TIME STEP 48 STRESS PERIOD 2
 58 TOTAL ITERATIONS

 OUTER ITERATION SUMMARY
 ----------------------------------------------------------------------------------------------------------
                                OUTER      INNER                    STEP   MAXIMUM CHANGE MODEL-(CELLID) OR
 OUTER ITERATION STEP       ITERATION  ITERATION  MAXIMUM CHANGE SUCCESS             MODEL-PACKAGE-(NUMBER)
 ----------------------------------------------------------------------------------------------------------
 Model                              1         31  5.36361399E-02                              1_GWF-(1,866)
 Model                              2         17 -5.81693749E-04                              1_GWF-(1,863)
 Model                              3          4  6.14634257E-06       *                     1_GWF-(1,4269)
 ----------------------------------------------------------------------------------------------------------


 3 CALLS TO NUMERICAL SOLUTION IN TIME STEP 49 STRESS PERIOD 2
 52 TOTAL ITERATIONS

 OUTER ITERATION SUMMARY
 ----------------------------------------------------------------------------------------------------------
                                OUTER      INNER                    STEP   MAXIMUM CHANGE MODEL-(CELLID) OR
 OUTER ITERATION STEP       ITERATION  ITERATION  MAXIMUM CHANGE SUCCESS             MODEL-PACKAGE-(NUMBER)
 ----------------------------------------------------------------------------------------------------------
 Model                              1         29 -8.50192368E-02                              1_GWF-(1,338)
 Model                              2         11  4.99210810E-04                             1_GWF-(1,4175)
 Model                              3          3  3.90045444E-06       *                     1_GWF-(1,4260)
 ----------------------------------------------------------------------------------------------------------


 3 CALLS TO NUMERICAL SOLUTION IN TIME STEP 50 STRESS PERIOD 2
 43 TOTAL ITERATIONS

 OUTER ITERATION SUMMARY
 ----------------------------------------------------------------------------------------------------------
                                OUTER      INNER                    STEP   MAXIMUM CHANGE MODEL-(CELLID) OR
 OUTER ITERATION STEP       ITERATION  ITERATION  MAXIMUM CHANGE SUCCESS             MODEL-PACKAGE-(NUMBER)
 ----------------------------------------------------------------------------------------------------------
 Model                              1         35  7.63217965E-02                             1_GWF-(1,3937)
 Model                              2         15 -1.04081556E-03                             1_GWF-(1,4351)
 Model                              3          6 -1.54582321E-05                             1_GWF-(1,4354)
 Model                              4          2 -1.82343123E-06       *                     1_GWF-(3,4836)
 ----------------------------------------------------------------------------------------------------------


 4 CALLS TO NUMERICAL SOLUTION IN TIME STEP 51 STRESS PERIOD 2
 58 TOTAL ITERATIONS

 OUTER ITERATION SUMMARY
 ----------------------------------------------------------------------------------------------------------
                                OUTER      INNER                    STEP   MAXIMUM CHANGE MODEL-(CELLID) OR
 OUTER ITERATION STEP       ITERATION  ITERATION  MAXIMUM CHANGE SUCCESS             MODEL-PACKAGE-(NUMBER)
 ----------------------------------------------------------------------------------------------------------
 Model                              1         32 -4.13901663E-02                              1_GWF-(1,339)
 Model                              2         13 -3.63301511E-04                             1_GWF-(1,4960)
 Model                              3          6 -6.48615355E-06       *                     1_GWF-(1,4667)
 ----------------------------------------------------------------------------------------------------------


 3 CALLS TO NUMERICAL SOLUTION IN TIME STEP 52 STRESS PERIOD 2
 51 TOTAL ITERATIONS

 OUTER ITERATION SUMMARY
 ----------------------------------------------------------------------------------------------------------
                                OUTER      INNER                    STEP   MAXIMUM CHANGE MODEL-(CELLID) OR
 OUTER ITERATION STEP       ITERATION  ITERATION  MAXIMUM CHANGE SUCCESS             MODEL-PACKAGE-(NUMBER)
 ----------------------------------------------------------------------------------------------------------
 Model                              1         34     -0.30855239                              1_GWF-(3,710)
 Model                              2         12  4.85056500E-04                              1_GWF-(1,635)
 Model                              3          4 -5.62805242E-06       *                     1_GWF-(1,4106)
 ----------------------------------------------------------------------------------------------------------


 3 CALLS TO NUMERICAL SOLUTION IN TIME STEP 53 STRESS PERIOD 2
 50 TOTAL ITERATIONS

 OUTER ITERATION SUMMARY
 ----------------------------------------------------------------------------------------------------------
                                OUTER      INNER                    STEP   MAXIMUM CHANGE MODEL-(CELLID) OR
 OUTER ITERATION STEP       ITERATION  ITERATION  MAXIMUM CHANGE SUCCESS             MODEL-PACKAGE-(NUMBER)
 ----------------------------------------------------------------------------------------------------------
 Model                              1         42      -1.8791028                              1_GWF-(3,710)
 Model                              2         17  2.00733228E-03                              1_GWF-(1,708)
 Model                              3          6  2.11890593E-05                              1_GWF-(1,710)
 Model                              4          2 -1.23260381E-06       *                      1_GWF-(2,942)
 ----------------------------------------------------------------------------------------------------------


 4 CALLS TO NUMERICAL SOLUTION IN TIME STEP 54 STRESS PERIOD 2
 67 TOTAL ITERATIONS

 OUTER ITERATION SUMMARY
 ----------------------------------------------------------------------------------------------------------
                                OUTER      INNER                    STEP   MAXIMUM CHANGE MODEL-(CELLID) OR
 OUTER ITERATION STEP       ITERATION  ITERATION  MAXIMUM CHANGE SUCCESS             MODEL-PACKAGE-(NUMBER)
 ----------------------------------------------------------------------------------------------------------
 Model                              1         35      -1.9551829                             1_GWF-(3,4261)
 Model                              2         16  9.50965407E-04                              1_GWF-(1,786)
 Model                              3          6  1.46549690E-05                             1_GWF-(1,4588)
 Model                              4          1 -5.02132039E-07       *                       1_GWF-(3,70)
 ----------------------------------------------------------------------------------------------------------


 4 CALLS TO NUMERICAL SOLUTION IN TIME STEP 55 STRESS PERIOD 2
 58 TOTAL ITERATIONS

 OUTER ITERATION SUMMARY
 ----------------------------------------------------------------------------------------------------------
                                OUTER      INNER                    STEP   MAXIMUM CHANGE MODEL-(CELLID) OR
 OUTER ITERATION STEP       ITERATION  ITERATION  MAXIMUM CHANGE SUCCESS             MODEL-PACKAGE-(NUMBER)
 ----------------------------------------------------------------------------------------------------------
 Model                              1         35      0.43764871                             1_GWF-(3,4261)
 Model                              2         17 -4.25396793E-03                             1_GWF-(1,3261)
 Model                              3          7  1.50183432E-05                             1_GWF-(1,3246)
 Model                              4          1  4.25499110E-07       *                     1_GWF-(3,4376)
 ----------------------------------------------------------------------------------------------------------


 4 CALLS TO NUMERICAL SOLUTION IN TIME STEP 56 STRESS PERIOD 2
 60 TOTAL ITERATIONS

 OUTER ITERATION SUMMARY
 ----------------------------------------------------------------------------------------------------------
                                OUTER      INNER                    STEP   MAXIMUM CHANGE MODEL-(CELLID) OR
 OUTER ITERATION STEP       ITERATION  ITERATION  MAXIMUM CHANGE SUCCESS             MODEL-PACKAGE-(NUMBER)
 ----------------------------------------------------------------------------------------------------------
 Model                              1         35     -0.22135924                             1_GWF-(3,4261)
 Model                              2         14  6.77777682E-04                             1_GWF-(1,3939)
 Model                              3          7  1.22395519E-05                             1_GWF-(1,4666)
 Model                              4          1  3.18697985E-07       *                       1_GWF-(3,50)
 ----------------------------------------------------------------------------------------------------------


 4 CALLS TO NUMERICAL SOLUTION IN TIME STEP 57 STRESS PERIOD 2
 57 TOTAL ITERATIONS

 OUTER ITERATION SUMMARY
 ----------------------------------------------------------------------------------------------------------
                                OUTER      INNER                    STEP   MAXIMUM CHANGE MODEL-(CELLID) OR
 OUTER ITERATION STEP       ITERATION  ITERATION  MAXIMUM CHANGE SUCCESS             MODEL-PACKAGE-(NUMBER)
 ----------------------------------------------------------------------------------------------------------
 Model                              1         31       1.2673877                             1_GWF-(3,4261)
 Model                              2         14 -7.38565405E-04                              1_GWF-(1,709)
 Model                              3          6  1.05654379E-05                             1_GWF-(1,4270)
 Model                              4          1 -2.53889169E-07       *                       1_GWF-(3,50)
 ----------------------------------------------------------------------------------------------------------


 4 CALLS TO NUMERICAL SOLUTION IN TIME STEP 58 STRESS PERIOD 2
 52 TOTAL ITERATIONS

 OUTER ITERATION SUMMARY
 ----------------------------------------------------------------------------------------------------------
                                OUTER      INNER                    STEP   MAXIMUM CHANGE MODEL-(CELLID) OR
 OUTER ITERATION STEP       ITERATION  ITERATION  MAXIMUM CHANGE SUCCESS             MODEL-PACKAGE-(NUMBER)
 ----------------------------------------------------------------------------------------------------------
 Model                              1         35      0.47748971                              1_GWF-(3,710)
 Model                              2         16 -1.22371841E-02                             1_GWF-(1,3264)
 Model                              3          8 -4.57953515E-05                             1_GWF-(1,3264)
 Model                              4          1  3.91888861E-07       *                     1_GWF-(1,3260)
 ----------------------------------------------------------------------------------------------------------


 4 CALLS TO NUMERICAL SOLUTION IN TIME STEP 59 STRESS PERIOD 2
 60 TOTAL ITERATIONS

 OUTER ITERATION SUMMARY
 ----------------------------------------------------------------------------------------------------------
                                OUTER      INNER                    STEP   MAXIMUM CHANGE MODEL-(CELLID) OR
 OUTER ITERATION STEP       ITERATION  ITERATION  MAXIMUM CHANGE SUCCESS             MODEL-PACKAGE-(NUMBER)
 ----------------------------------------------------------------------------------------------------------
 Model                              1         29 -7.07197493E-02                                1_GWF-(1,1)
 Model                              2         14 -5.52092367E-04                              1_GWF-(1,708)
 Model                              3          2  7.84224784E-06       *                     1_GWF-(1,4188)
 ----------------------------------------------------------------------------------------------------------


 3 CALLS TO NUMERICAL SOLUTION IN TIME STEP 60 STRESS PERIOD 2
 45 TOTAL ITERATIONS

 OUTER ITERATION SUMMARY
 ----------------------------------------------------------------------------------------------------------
                                OUTER      INNER                    STEP   MAXIMUM CHANGE MODEL-(CELLID) OR
 OUTER ITERATION STEP       ITERATION  ITERATION  MAXIMUM CHANGE SUCCESS             MODEL-PACKAGE-(NUMBER)
 ----------------------------------------------------------------------------------------------------------
 Model                              1         34     -0.51612116                              1_GWF-(3,710)
 Model                              2         16 -3.97853722E-04                             1_GWF-(1,1263)
 Model                              3          2  6.40619253E-06       *                     1_GWF-(1,4270)
 ----------------------------------------------------------------------------------------------------------


 3 CALLS TO NUMERICAL SOLUTION IN TIME STEP 61 STRESS PERIOD 2
 52 TOTAL ITERATIONS

 OUTER ITERATION SUMMARY
 ----------------------------------------------------------------------------------------------------------
                                OUTER      INNER                    STEP   MAXIMUM CHANGE MODEL-(CELLID) OR
 OUTER ITERATION STEP       ITERATION  ITERATION  MAXIMUM CHANGE SUCCESS             MODEL-PACKAGE-(NUMBER)
 ----------------------------------------------------------------------------------------------------------
 Model                              1         34     -0.47117570                              1_GWF-(3,710)
 Model                              2         17 -4.06726776E-04                             1_GWF-(1,1263)
 Model                              3          2  5.84432071E-06       *                     1_GWF-(1,4270)
 ----------------------------------------------------------------------------------------------------------


 3 CALLS TO NUMERICAL SOLUTION IN TIME STEP 62 STRESS PERIOD 2
 53 TOTAL ITERATIONS

 OUTER ITERATION SUMMARY
 ----------------------------------------------------------------------------------------------------------
                                OUTER      INNER                    STEP   MAXIMUM CHANGE MODEL-(CELLID) OR
 OUTER ITERATION STEP       ITERATION  ITERATION  MAXIMUM CHANGE SUCCESS             MODEL-PACKAGE-(NUMBER)
 ----------------------------------------------------------------------------------------------------------
 Model                              1         34      0.71458320                              1_GWF-(3,710)
 Model                              2         12 -5.60581474E-04                              1_GWF-(1,709)
 Model                              3          3  5.48580348E-06       *                     1_GWF-(1,4270)
 ----------------------------------------------------------------------------------------------------------


 3 CALLS TO NUMERICAL SOLUTION IN TIME STEP 63 STRESS PERIOD 2
 49 TOTAL ITERATIONS

 OUTER ITERATION SUMMARY
 ----------------------------------------------------------------------------------------------------------
                                OUTER      INNER                    STEP   MAXIMUM CHANGE MODEL-(CELLID) OR
 OUTER ITERATION STEP       ITERATION  ITERATION  MAXIMUM CHANGE SUCCESS             MODEL-PACKAGE-(NUMBER)
 ----------------------------------------------------------------------------------------------------------
 Model                              1         33     -0.83336657                              1_GWF-(3,710)
 Model                              2         17 -3.66245863E-04                             1_GWF-(1,1263)
 Model                              3          2  4.74825548E-06       *                     1_GWF-(1,4270)
 ----------------------------------------------------------------------------------------------------------


 3 CALLS TO NUMERICAL SOLUTION IN TIME STEP 64 STRESS PERIOD 2
 52 TOTAL ITERATIONS

 OUTER ITERATION SUMMARY
 ----------------------------------------------------------------------------------------------------------
                                OUTER      INNER                    STEP   MAXIMUM CHANGE MODEL-(CELLID) OR
 OUTER ITERATION STEP       ITERATION  ITERATION  MAXIMUM CHANGE SUCCESS             MODEL-PACKAGE-(NUMBER)
 ----------------------------------------------------------------------------------------------------------
 Model                              1         35      -1.2272895                             1_GWF-(3,4261)
 Model                              2         17  4.63379208E-04                             1_GWF-(1,4340)
 Model                              3          5  5.40961052E-06       *                      1_GWF-(1,709)
 ----------------------------------------------------------------------------------------------------------


 3 CALLS TO NUMERICAL SOLUTION IN TIME STEP 65 STRESS PERIOD 2
 57 TOTAL ITERATIONS

 OUTER ITERATION SUMMARY
 ----------------------------------------------------------------------------------------------------------
                                OUTER      INNER                    STEP   MAXIMUM CHANGE MODEL-(CELLID) OR
 OUTER ITERATION STEP       ITERATION  ITERATION  MAXIMUM CHANGE SUCCESS             MODEL-PACKAGE-(NUMBER)
 ----------------------------------------------------------------------------------------------------------
 Model                              1         36     -0.88228658                             1_GWF-(3,4261)
 Model                              2         17 -5.73514489E-04                              1_GWF-(1,710)
 Model                              3          5  7.38165150E-06       *                      1_GWF-(1,709)
 ----------------------------------------------------------------------------------------------------------


 3 CALLS TO NUMERICAL SOLUTION IN TIME STEP 66 STRESS PERIOD 2
 58 TOTAL ITERATIONS

 OUTER ITERATION SUMMARY
 ----------------------------------------------------------------------------------------------------------
                                OUTER      INNER                    STEP   MAXIMUM CHANGE MODEL-(CELLID) OR
 OUTER ITERATION STEP       ITERATION  ITERATION  MAXIMUM CHANGE SUCCESS             MODEL-PACKAGE-(NUMBER)
 ----------------------------------------------------------------------------------------------------------
 Model                              1         30      0.24469912                             1_GWF-(3,4261)
 Model                              2         16 -4.79678118E-04                              1_GWF-(1,710)
 Model                              3          6  4.92158735E-06       *                     1_GWF-(1,4187)
 ----------------------------------------------------------------------------------------------------------


 3 CALLS TO NUMERICAL SOLUTION IN TIME STEP 67 STRESS PERIOD 2
 52 TOTAL ITERATIONS

 OUTER ITERATION SUMMARY
 ----------------------------------------------------------------------------------------------------------
                                OUTER      INNER                    STEP   MAXIMUM CHANGE MODEL-(CELLID) OR
 OUTER ITERATION STEP       ITERATION  ITERATION  MAXIMUM CHANGE SUCCESS             MODEL-PACKAGE-(NUMBER)
 ----------------------------------------------------------------------------------------------------------
 Model                              1         35      0.21070004                             1_GWF-(3,4261)
 Model                              2         16 -4.11085107E-04                              1_GWF-(1,710)
 Model                              3          4  5.07752839E-06       *                     1_GWF-(1,4187)
 ----------------------------------------------------------------------------------------------------------


 3 CALLS TO NUMERICAL SOLUTION IN TIME STEP 68 STRESS PERIOD 2
 55 TOTAL ITERATIONS

 OUTER ITERATION SUMMARY
 ----------------------------------------------------------------------------------------------------------
                                OUTER      INNER                    STEP   MAXIMUM CHANGE MODEL-(CELLID) OR
 OUTER ITERATION STEP       ITERATION  ITERATION  MAXIMUM CHANGE SUCCESS             MODEL-PACKAGE-(NUMBER)
 ----------------------------------------------------------------------------------------------------------
 Model                              1         34     -0.21401623                             1_GWF-(3,4261)
 Model                              2         17 -4.11674343E-04                              1_GWF-(1,710)
[...]
 ----------------------------------------------------------------------------------------------------------
 Model                              1         33     -0.76669377                              1_GWF-(3,710)
 Model                              2         12  8.83908187E-04                              1_GWF-(1,709)
 Model                              3          6 -1.22096991E-05                             1_GWF-(1,4106)
 Model                              4          2  1.74959740E-06       *                     1_GWF-(3,4981)
 ----------------------------------------------------------------------------------------------------------


 4 CALLS TO NUMERICAL SOLUTION IN TIME STEP 102 STRESS PERIOD 2
 53 TOTAL ITERATIONS

 OUTER ITERATION SUMMARY
 ----------------------------------------------------------------------------------------------------------
                                OUTER      INNER                    STEP   MAXIMUM CHANGE MODEL-(CELLID) OR
 OUTER ITERATION STEP       ITERATION  ITERATION  MAXIMUM CHANGE SUCCESS             MODEL-PACKAGE-(NUMBER)
 ----------------------------------------------------------------------------------------------------------
 Model                              1         35      -1.0878425                              1_GWF-(3,710)
 Model                              2         17  1.58117580E-03                              1_GWF-(1,787)
 Model                              3          6  1.67768386E-05                             1_GWF-(1,4354)
 Model                              4          3  1.80192772E-06       *                     1_GWF-(3,4836)
 ----------------------------------------------------------------------------------------------------------


 4 CALLS TO NUMERICAL SOLUTION IN TIME STEP 103 STRESS PERIOD 2
 61 TOTAL ITERATIONS

 OUTER ITERATION SUMMARY
 ----------------------------------------------------------------------------------------------------------
                                OUTER      INNER                    STEP   MAXIMUM CHANGE MODEL-(CELLID) OR
 OUTER ITERATION STEP       ITERATION  ITERATION  MAXIMUM CHANGE SUCCESS             MODEL-PACKAGE-(NUMBER)
 ----------------------------------------------------------------------------------------------------------
 Model                              1         37      -2.1793127                             1_GWF-(3,4261)
 Model                              2         15 -2.11824651E-02                             1_GWF-(1,3264)
 Model                              3          8 -7.49956678E-05                             1_GWF-(1,3264)
 Model                              4          1  6.69484976E-07       *                       1_GWF-(3,61)
 ----------------------------------------------------------------------------------------------------------


 4 CALLS TO NUMERICAL SOLUTION IN TIME STEP 104 STRESS PERIOD 2
 61 TOTAL ITERATIONS

 OUTER ITERATION SUMMARY
 ----------------------------------------------------------------------------------------------------------
                                OUTER      INNER                    STEP   MAXIMUM CHANGE MODEL-(CELLID) OR
 OUTER ITERATION STEP       ITERATION  ITERATION  MAXIMUM CHANGE SUCCESS             MODEL-PACKAGE-(NUMBER)
 ----------------------------------------------------------------------------------------------------------
 Model                              1         33      0.85839290                             1_GWF-(3,4261)
 Model                              2         13  8.20959443E-04                             1_GWF-(1,4664)
 Model                              3          3  1.53302478E-05                             1_GWF-(1,4667)
 Model                              4          5  3.93929919E-06       *                     1_GWF-(3,4909)
 ----------------------------------------------------------------------------------------------------------


 4 CALLS TO NUMERICAL SOLUTION IN TIME STEP 105 STRESS PERIOD 2
 54 TOTAL ITERATIONS

 OUTER ITERATION SUMMARY
 ----------------------------------------------------------------------------------------------------------
                                OUTER      INNER                    STEP   MAXIMUM CHANGE MODEL-(CELLID) OR
 OUTER ITERATION STEP       ITERATION  ITERATION  MAXIMUM CHANGE SUCCESS             MODEL-PACKAGE-(NUMBER)
 ----------------------------------------------------------------------------------------------------------
 Model                              1         38       1.6320262                             1_GWF-(3,4261)
 Model                              2         15 -1.13239834E-03                              1_GWF-(1,709)
 Model                              3          4  9.63295203E-06       *                      1_GWF-(1,864)
 ----------------------------------------------------------------------------------------------------------


 3 CALLS TO NUMERICAL SOLUTION IN TIME STEP 106 STRESS PERIOD 2
 57 TOTAL ITERATIONS

 OUTER ITERATION SUMMARY
 ----------------------------------------------------------------------------------------------------------
                                OUTER      INNER                    STEP   MAXIMUM CHANGE MODEL-(CELLID) OR
 OUTER ITERATION STEP       ITERATION  ITERATION  MAXIMUM CHANGE SUCCESS             MODEL-PACKAGE-(NUMBER)
 ----------------------------------------------------------------------------------------------------------
 Model                              1         36     -0.32795390                              1_GWF-(3,710)
 Model                              2         16  3.91582129E-04                             1_GWF-(1,4959)
 Model                              3          6  7.42461732E-06       *                     1_GWF-(1,4666)
 ----------------------------------------------------------------------------------------------------------


 3 CALLS TO NUMERICAL SOLUTION IN TIME STEP 107 STRESS PERIOD 2
 58 TOTAL ITERATIONS

 OUTER ITERATION SUMMARY
 ----------------------------------------------------------------------------------------------------------
                                OUTER      INNER                    STEP   MAXIMUM CHANGE MODEL-(CELLID) OR
 OUTER ITERATION STEP       ITERATION  ITERATION  MAXIMUM CHANGE SUCCESS             MODEL-PACKAGE-(NUMBER)
 ----------------------------------------------------------------------------------------------------------
 Model                              1         29      0.33346558                              1_GWF-(3,710)
 Model                              2         14 -4.17983820E-04                              1_GWF-(1,709)
 Model                              3          3  6.17685392E-06       *                     1_GWF-(1,4188)
 ----------------------------------------------------------------------------------------------------------


 3 CALLS TO NUMERICAL SOLUTION IN TIME STEP 108 STRESS PERIOD 2
 46 TOTAL ITERATIONS

 OUTER ITERATION SUMMARY
 ----------------------------------------------------------------------------------------------------------
                                OUTER      INNER                    STEP   MAXIMUM CHANGE MODEL-(CELLID) OR
 OUTER ITERATION STEP       ITERATION  ITERATION  MAXIMUM CHANGE SUCCESS             MODEL-PACKAGE-(NUMBER)
 ----------------------------------------------------------------------------------------------------------
 Model                              1         27 -3.91038625E-02                                1_GWF-(1,1)
 Model                              2         13 -3.12107257E-04                              1_GWF-(1,708)
 Model                              3          3  5.66912807E-06       *                     1_GWF-(1,4106)
 ----------------------------------------------------------------------------------------------------------


 3 CALLS TO NUMERICAL SOLUTION IN TIME STEP 109 STRESS PERIOD 2
 43 TOTAL ITERATIONS

 OUTER ITERATION SUMMARY
 ----------------------------------------------------------------------------------------------------------
                                OUTER      INNER                    STEP   MAXIMUM CHANGE MODEL-(CELLID) OR
 OUTER ITERATION STEP       ITERATION  ITERATION  MAXIMUM CHANGE SUCCESS             MODEL-PACKAGE-(NUMBER)
 ----------------------------------------------------------------------------------------------------------
 Model                              1         35  7.30317723E-02                              1_GWF-(1,711)
 Model                              2         15 -6.59026468E-04                             1_GWF-(1,4352)
 Model                              3          7  8.33842758E-06       *                     1_GWF-(1,4268)
 ----------------------------------------------------------------------------------------------------------


 3 CALLS TO NUMERICAL SOLUTION IN TIME STEP 110 STRESS PERIOD 2
 57 TOTAL ITERATIONS

 OUTER ITERATION SUMMARY
 ----------------------------------------------------------------------------------------------------------
                                OUTER      INNER                    STEP   MAXIMUM CHANGE MODEL-(CELLID) OR
 OUTER ITERATION STEP       ITERATION  ITERATION  MAXIMUM CHANGE SUCCESS             MODEL-PACKAGE-(NUMBER)
 ----------------------------------------------------------------------------------------------------------
 Model                              1         34     -0.79182754                              1_GWF-(3,710)
 Model                              2         11  5.88955098E-04                              1_GWF-(1,636)
 Model                              3          4  4.92995858E-06       *                     1_GWF-(1,1027)
 ----------------------------------------------------------------------------------------------------------


 3 CALLS TO NUMERICAL SOLUTION IN TIME STEP 111 STRESS PERIOD 2
 49 TOTAL ITERATIONS

 OUTER ITERATION SUMMARY
 ----------------------------------------------------------------------------------------------------------
                                OUTER      INNER                    STEP   MAXIMUM CHANGE MODEL-(CELLID) OR
 OUTER ITERATION STEP       ITERATION  ITERATION  MAXIMUM CHANGE SUCCESS             MODEL-PACKAGE-(NUMBER)
 ----------------------------------------------------------------------------------------------------------
 Model                              1         30      0.40699477                              1_GWF-(3,710)
 Model                              2         13  2.37946496E-04                             1_GWF-(1,4175)
 Model                              3          2  2.92469181E-06       *                     1_GWF-(1,4436)
 ----------------------------------------------------------------------------------------------------------


 3 CALLS TO NUMERICAL SOLUTION IN TIME STEP 112 STRESS PERIOD 2
 45 TOTAL ITERATIONS

 OUTER ITERATION SUMMARY
 ----------------------------------------------------------------------------------------------------------
                                OUTER      INNER                    STEP   MAXIMUM CHANGE MODEL-(CELLID) OR
 OUTER ITERATION STEP       ITERATION  ITERATION  MAXIMUM CHANGE SUCCESS             MODEL-PACKAGE-(NUMBER)
 ----------------------------------------------------------------------------------------------------------
 Model                              1         44      -1.9606160                              1_GWF-(3,710)
 Model                              2         20  1.52843512E-03                              1_GWF-(1,708)
 Model                              3          4  1.70151766E-05                              1_GWF-(1,709)
 Model                              4          1 -9.42682050E-07       *                      1_GWF-(2,942)
 ----------------------------------------------------------------------------------------------------------


 4 CALLS TO NUMERICAL SOLUTION IN TIME STEP 113 STRESS PERIOD 2
 69 TOTAL ITERATIONS

 OUTER ITERATION SUMMARY
 ----------------------------------------------------------------------------------------------------------
                                OUTER      INNER                    STEP   MAXIMUM CHANGE MODEL-(CELLID) OR
 OUTER ITERATION STEP       ITERATION  ITERATION  MAXIMUM CHANGE SUCCESS             MODEL-PACKAGE-(NUMBER)
 ----------------------------------------------------------------------------------------------------------
 Model                              1         34      0.91411244                              1_GWF-(3,710)
 Model                              2         14  4.83380602E-04                             1_GWF-(1,3939)
 Model                              3          3  6.61112529E-06       *                     1_GWF-(1,4435)
 ----------------------------------------------------------------------------------------------------------


 3 CALLS TO NUMERICAL SOLUTION IN TIME STEP 114 STRESS PERIOD 2
 51 TOTAL ITERATIONS

 OUTER ITERATION SUMMARY
 ----------------------------------------------------------------------------------------------------------
                                OUTER      INNER                    STEP   MAXIMUM CHANGE MODEL-(CELLID) OR
 OUTER ITERATION STEP       ITERATION  ITERATION  MAXIMUM CHANGE SUCCESS             MODEL-PACKAGE-(NUMBER)
 ----------------------------------------------------------------------------------------------------------
 Model                              1         38      -1.2819015                             1_GWF-(3,4261)
 Model                              2         16 -8.35973159E-04                              1_GWF-(1,710)
 Model                              3          5  1.03468190E-05                              1_GWF-(1,709)
 Model                              4          1  4.95373385E-07       *                       1_GWF-(3,70)
 ----------------------------------------------------------------------------------------------------------


 4 CALLS TO NUMERICAL SOLUTION IN TIME STEP 115 STRESS PERIOD 2
 60 TOTAL ITERATIONS

 OUTER ITERATION SUMMARY
 ----------------------------------------------------------------------------------------------------------
                                OUTER      INNER                    STEP   MAXIMUM CHANGE MODEL-(CELLID) OR
 OUTER ITERATION STEP       ITERATION  ITERATION  MAXIMUM CHANGE SUCCESS             MODEL-PACKAGE-(NUMBER)
 ----------------------------------------------------------------------------------------------------------
 Model                              1         33     -0.70251941                             1_GWF-(3,4261)
 Model                              2         16 -1.18843571E-03                              1_GWF-(1,710)
 Model                              3          5  1.28488131E-05                              1_GWF-(1,709)
 Model                              4          1 -5.78320922E-07       *                       1_GWF-(3,61)
 ----------------------------------------------------------------------------------------------------------


 4 CALLS TO NUMERICAL SOLUTION IN TIME STEP 116 STRESS PERIOD 2
 55 TOTAL ITERATIONS

 OUTER ITERATION SUMMARY
 ----------------------------------------------------------------------------------------------------------
                                OUTER      INNER                    STEP   MAXIMUM CHANGE MODEL-(CELLID) OR
 OUTER ITERATION STEP       ITERATION  ITERATION  MAXIMUM CHANGE SUCCESS             MODEL-PACKAGE-(NUMBER)
 ----------------------------------------------------------------------------------------------------------
 Model                              1         38       3.1761196                             1_GWF-(3,4261)
 Model                              2         12 -1.28270982E-03                              1_GWF-(1,709)
 Model                              3          5 -1.19992624E-05                              1_GWF-(1,710)
 Model                              4          2 -1.33838141E-06       *                       1_GWF-(3,70)
 ----------------------------------------------------------------------------------------------------------


 4 CALLS TO NUMERICAL SOLUTION IN TIME STEP 117 STRESS PERIOD 2
 57 TOTAL ITERATIONS

 OUTER ITERATION SUMMARY
 ----------------------------------------------------------------------------------------------------------
                                OUTER      INNER                    STEP   MAXIMUM CHANGE MODEL-(CELLID) OR
 OUTER ITERATION STEP       ITERATION  ITERATION  MAXIMUM CHANGE SUCCESS             MODEL-PACKAGE-(NUMBER)
 ----------------------------------------------------------------------------------------------------------
 Model                              1         32      0.19351746                              1_GWF-(3,710)
 Model                              2         12 -7.95972857E-04                              1_GWF-(1,636)
 Model                              3          5  6.29902090E-06       *                      1_GWF-(1,785)
 ----------------------------------------------------------------------------------------------------------


 3 CALLS TO NUMERICAL SOLUTION IN TIME STEP 118 STRESS PERIOD 2
 49 TOTAL ITERATIONS

 OUTER ITERATION SUMMARY
 ----------------------------------------------------------------------------------------------------------
                                OUTER      INNER                    STEP   MAXIMUM CHANGE MODEL-(CELLID) OR
 OUTER ITERATION STEP       ITERATION  ITERATION  MAXIMUM CHANGE SUCCESS             MODEL-PACKAGE-(NUMBER)
 ----------------------------------------------------------------------------------------------------------
 Model                              1         32  8.20474238E-02                              1_GWF-(3,710)
 Model                              2         14 -5.83346066E-04                              1_GWF-(1,708)
 Model                              3          5  5.26038855E-06       *                     1_GWF-(1,4188)
 ----------------------------------------------------------------------------------------------------------


 3 CALLS TO NUMERICAL SOLUTION IN TIME STEP 119 STRESS PERIOD 2
 51 TOTAL ITERATIONS

 OUTER ITERATION SUMMARY
 ----------------------------------------------------------------------------------------------------------
                                OUTER      INNER                    STEP   MAXIMUM CHANGE MODEL-(CELLID) OR
 OUTER ITERATION STEP       ITERATION  ITERATION  MAXIMUM CHANGE SUCCESS             MODEL-PACKAGE-(NUMBER)
 ----------------------------------------------------------------------------------------------------------
 Model                              1         35      0.12998914                              1_GWF-(1,638)
 Model                              2         13 -1.04459596E-03                              1_GWF-(1,635)
 Model                              3          3 -5.86539694E-06       *                     1_GWF-(1,1028)
 ----------------------------------------------------------------------------------------------------------


 3 CALLS TO NUMERICAL SOLUTION IN TIME STEP 120 STRESS PERIOD 2
 51 TOTAL ITERATIONS

 MEMORY MANAGER TOTAL STORAGE BY DATA TYPE, IN MEGABYTES
 -------------------------------
                    ALLOCATED   
 DATA TYPE           MEMORY     
 -------------------------------
 Character        0.55360100    
 Logical          4.40000000E-05
 Integer          3.4359720     
 Real             7.1993920     
 -------------------------------
 Total            11.189009     
 -------------------------------


 
 Run end date and time (yyyy/mm/dd hh:mm:ss): 2021/02/22 17:36:10
 Elapsed run time:  9.317 Seconds

WARNING REPORT:

  1. NONLINEAR BLOCK VARIABLE 'OUTER_HCLOSE' IN FILE 'model.ims' WAS
     DEPRECATED IN VERSION 6.1.1. SETTING OUTER_DVCLOSE TO OUTER_HCLOSE VALUE.
  2. LINEAR BLOCK VARIABLE 'INNER_HCLOSE' IN FILE 'model.ims' WAS DEPRECATED
     IN VERSION 6.1.1. SETTING INNER_DVCLOSE TO INNER_HCLOSE VALUE.
 Normal termination of simulation.
