                                   MODFLOW 6
                U.S. GEOLOGICAL SURVEY MODULAR HYDROLOGIC MODEL
                          GROUNDWATER FLOW MODEL (GWF)
                            VERSION 6.2.0 10/22/2020

   MODFLOW 6 compiled Oct 22 2020 09:26:42 with IFORT compiler (ver. 19.10.2)

This software has been approved for release by the U.S. Geological 
Survey (USGS). Although the software has been subjected to rigorous 
review, the USGS reserves the right to update the software as needed 
pursuant to further analysis and review. No warranty, expressed or 
implied, is made by the USGS or the U.S. Government as to the 
functionality of the software and related material nor shall the 
fact of release constitute any such warranty. Furthermore, the 
software is released on condition that neither the USGS nor the U.S. 
Government shall be held liable for any damages resulting from its 
authorized or unauthorized use. Also refer to the USGS Water 
Resources Software User Rights Notice for complete use, copyright, 
and distribution information.


System command used to initiate simulation:
mf6  mfsim.nam

MODFLOW was compiled using uniform precision.

Real Variables
  KIND: 8
  TINY (smallest non-zero value):    2.225074-308
  HUGE (largest value):    1.797693+308
  PRECISION: 15
  BIT SIZE: 64

Integer Variables
  KIND: 4
  HUGE (largest value): 2147483647
  BIT SIZE: 32

Long Integer Variables
  KIND: 8
  HUGE (largest value): 9223372036854775807
  BIT SIZE: 64

Logical Variables
  KIND: 4
  BIT SIZE: 32
 

 OPENED model.disv
 FILE TYPE:DISV6                  UNIT 1005   STATUS:OLD                 
 FORMAT:FORMATTED              ACCESS:SEQUENTIAL          
 ACTION:READ                


 OPENED model.sto
 FILE TYPE:STO6                   UNIT 1006   STATUS:OLD                 
 FORMAT:FORMATTED              ACCESS:SEQUENTIAL          
 ACTION:READ                


 OPENED model.npf
 FILE TYPE:NPF6                   UNIT 1007   STATUS:OLD                 
 FORMAT:FORMATTED              ACCESS:SEQUENTIAL          
 ACTION:READ                


 OPENED model.ic
 FILE TYPE:IC6                    UNIT 1008   STATUS:OLD                 
 FORMAT:FORMATTED              ACCESS:SEQUENTIAL          
 ACTION:READ                


 OPENED model.lu1.rch
 FILE TYPE:RCH6                   UNIT 1009   STATUS:OLD                 
 FORMAT:FORMATTED              ACCESS:SEQUENTIAL          
 ACTION:READ                


 OPENED model.lu2.rch
 FILE TYPE:RCH6                   UNIT 1010   STATUS:OLD                 
 FORMAT:FORMATTED              ACCESS:SEQUENTIAL          
 ACTION:READ                


 OPENED model.lu3.rch
 FILE TYPE:RCH6                   UNIT 1011   STATUS:OLD                 
 FORMAT:FORMATTED              ACCESS:SEQUENTIAL          
 ACTION:READ                


 OPENED model.evt
 FILE TYPE:EVT6                   UNIT 1012   STATUS:OLD                 
 FORMAT:FORMATTED              ACCESS:SEQUENTIAL          
 ACTION:READ                


 OPENED model.chd
 FILE TYPE:CHD6                   UNIT 1013   STATUS:OLD                 
 FORMAT:FORMATTED              ACCESS:SEQUENTIAL          
 ACTION:READ                


 OPENED model.ghb
 FILE TYPE:GHB6                   UNIT 1014   STATUS:OLD                 
 FORMAT:FORMATTED              ACCESS:SEQUENTIAL          
 ACTION:READ                


 OPENED model.riv
 FILE TYPE:RIV6                   UNIT 1015   STATUS:OLD                 
 FORMAT:FORMATTED              ACCESS:SEQUENTIAL          
 ACTION:READ                


 OPENED model.surf.drn
 FILE TYPE:DRN6                   UNIT 1016   STATUS:OLD                 
 FORMAT:FORMATTED              ACCESS:SEQUENTIAL          
 ACTION:READ                


 OPENED model.wel
 FILE TYPE:WEL6                   UNIT 1017   STATUS:OLD                 
 FORMAT:FORMATTED              ACCESS:SEQUENTIAL          
 ACTION:READ                


 OPENED model.obs
 FILE TYPE:OBS6                   UNIT 1018   STATUS:OLD                 
 FORMAT:FORMATTED              ACCESS:SEQUENTIAL          
 ACTION:READ                


 OPENED model.oc
 FILE TYPE:OC6                    UNIT 1019   STATUS:OLD                 
 FORMAT:FORMATTED              ACCESS:SEQUENTIAL          
 ACTION:READ                


 DISV -- VERTEX GRID DISCRETIZATION PACKAGE, VERSION 1 : 12/23/2015 - INPUT READ FROM UNIT 1005


 # File generated by Flopy version 3.3.3 on 04/14/2021 at 16:24:13.

 PROCESSING DISCRETIZATION OPTIONS
   MODEL LENGTH UNIT IS UNDEFINED
 END OF DISCRETIZATION OPTIONS

 PROCESSING DISCRETIZATION DIMENSIONS
   NLAY = 3
   NCPL = 4307
   NVERT = 5182
 END OF DISCRETIZATION DIMENSIONS

 PROCESSING GRIDDATA

   MODEL LAYER BOTTOM EL. =   80.00000     FOR LAYER 1

   MODEL LAYER BOTTOM EL. =   70.00000     FOR LAYER 2

   MODEL LAYER BOTTOM EL. =   0.000000     FOR LAYER 3

                  IDOMAIN FOR LAYER 1
      1 1 1 1 1 1 1 1 1 1 1 1 1 1 1 1 1 1 1 1 1 1 1 1 1 1 1 1 1 1 1 1 1 1 1 1 1 1 1 1 1 1 1 1 1 1 1 1 1 1 1 1 1 1 1 1 1 1 1 1
      1 1 1 1 1 1 1 1 1 1 1 1 1 1 1 1 1 1 1 1 1 1 1 1 1 1 1 1 1 1 1 1 1 1 1 1 1 1 1 1 1 1 1 1 1 1 1 1 1 1 1 1 1 1 1 1 1 1 1 1
      1 1 1 1 1 1 1 1 1 1 1 1 1 1 1 1 1 1 1 1 1 1 1 1 1 1 1 1 1 1 1 1 1 1 1 1 1 1 1 1 1 1 1 1 1 1 1 1 1 1 1 1 1 1 1 1 1 1 1 1
      1 1 1 1 1 1 1 1 1 1 1 1 1 1 1 1 1 1 1 1 1 1 1 1 1 1 1 1 1 1 1 1 1 1 1 1 1 1 1 1 1 1 1 1 1 1 1 1 1 1 1 1 1 1 1 1 1 1 1 1
      1 1 1 1 1 1 1 1 1 1 1 1 1 1 1 1 1 1 1 1 1 1 1 1 1 1 1 1 1 1 1 1 1 1 1 1 1 1 1 1 1 1 1 1 1 1 1 1 1 1 1 1 1 1 1 1 1 1 1 1
      1 1 1 1 1 1 1 1 1 1 1 1 1 1 1 1 1 1 1 1 1 1 1 1 1 1 1 1 1 1 1 1 1 1 1 1 1 1 1 1 1 1 1 1 1 1 1 1 1 1 1 1 1 1 1 1 1 1 1 1
      1 1 1 1 1 1 1 1 1 1 1 1 1 1 1 1 1 1 1 1 1 1 1 1 1 1 1 1 1 1 1 1 1 1 1 1 1 1 1 1 1 1 1 1 1 1 1 1 1 1 1 1 1 1 1 1 1 1 1 1
      1 1 1 1 1 1 1 1 1 1 1 1 1 1 1 1 1 1 1 1 1 1 1 1 1 1 1 1 1 1 1 1 1 1 1 1 1 1 1 1 1 1 1 1 1 1 1 1 1 1 1 1 1 1 1 1 1 1 1 1
      1 1 1 1 1 1 1 1 1 1 1 1 1 1 1 1 1 1 1 1 1 1 1 1 1 1 1 1 1 1 1 1 1 1 1 1 1 1 1 1 1 1 1 1 1 1 1 1 1 1 1 1 1 1 1 1 1 1 1 1
      1 1 1 1 1 1 1 1 1 1 1 1 1 1 1 1 1 1 1 1 1 1 1 1 1 1 1 1 1 1 1 1 1 1 1 1 1 1 1 1 1 1 1 1 1 1 1 1 1 1 1 1 1 1 1 1 1 1 1 1
      1 1 1 1 1 1 1 1 1 1 1 1 1 1 1 1 1 1 1 1 1 1 1 1 1 1 1 1 1 1 1 1 1 1 1 1 1 1 1 1 1 1 1 1 1 1 1 1 1 1 1 1 1 1 1 1 1 1 1 1
      1 1 1 1 1 1 1 1 1 1 1 1 1 1 1 1 1 1 1 1 1 1 1 1 1 1 1 1 1 1 1 1 1 1 1 1 1 1 1 1 1 1 1 1 1 1 1 1 1 1 1 1 1 1 1 1 1 1 1 1
      1 1 1 1 1 1 1 1 1 1 1 1 1 1 1 1 1 1 1 1 1 1 1 1 1 1 1 1 1 1 1 1 1 1 1 4 4 1 1 1 1 1 1 1 1 1 1 1 1 1 1 1 1 1 1 1 1 1 1 1
      1 1 1 1 1 1 1 1 1 1 1 1 1 1 1 1 1 1 1 1 1 1 1 1 1 1 1 1 1 1 1 1 1 1 1 1 1 4 4 1 1 1 1 1 1 1 1 1 1 1 1 1 1 1 1 1 1 1 1 1
      1 1 1 1 1 1 1 1 1 1 1 1 1 1 1 1 1 1 1 1 1 1 1 1 1 1 1 1 1 1 1 1 4 4 1 1 1 1 1 1 1 1 1 1 1 1 4 1 4 4 4 4 4 1 1 1 1 1 1 1
      1 1 1 1 1 1 1 1 1 1 1 1 1 1 1 1 1 1 1 1 1 1 1 1 1 1 1 1 1 1 1 1 1 1 1 1 1 1 4 4 4 1 1 1 1 1 1 1 1 1 1 1 1 1 1 1 1 1 1 1
      1 4 1 1 4 4 4 4 1 1 1 1 1 1 1 1 1 1 1 1 1 1 1 1 1 1 1 1 1 1 1 1 1 1 1 1 1 1 1 1 1 1 1 1 1 1 1 1 1 1 1 1 1 4 4 4 4 4 4 1
      4 4 4 4 4 4 4 4 4 4 4 4 4 4 4 4 4 4 4 4 4 4 4 4 4 1 4 4 4 4 4 4 4 4 4 4 4 4 4 4 4 4 4 4 4 4 4 4 1 1 1 4 1 1 1 1 4 4 4 4
      4 1 1 1 1 4 4 1 4 4 4 4 4 1 4 4 1 4 4 4 4 4 4 4 4 4 4 4 1 1 1 1 4 4 1 1 4 4 1 1 1 1 4 4 1 1 4 1 1 1 1 1 1 1 1 4 4 4 4 1
      1 1 4 4 4 1 1 1 1 1 1 1 1 1 1 1 1 1 1 1 1 1 1 1 1 1 1 1 1 1 1 1 1 1 1 1 1 1 1 1 1 1 1 1 1 1 1 1 1 1 1 1 1 1 1 1 1 1 1 1
      4 4 4 4 4 1 1 1 1 4 4 4 4 4 4 4 4 4 4 4 4 4 4 4 4 4 4 4 4 1 1 4 4 4 4 4 4 4 4 4 4 4 4 4 4 4 4 4 4 4 4 4 4 4 4 4 4 4 4 4
      4 4 4 4 4 4 1 4 4 1 4 4 4 4 4 1 1 4 4 1 1 4 4 1 1 4 4 1 4 4 4 4 4 4 4 4 4 4 4 4 4 4 4 4 4 4 4 4 4 4 4 4 4 4 4 4 4 4 1 4
      4 1 1 1 4 4 4 4 1 1 4 1 1 1 1 1 1 1 1 1 1 1 1 1 1 1 1 1 1 1 1 1 1 1 1 1 1 1 1 1 1 1 1 1 1 4 4 4 4 4 4 4 4 1 4 4 4 4 4 4
      4 4 4 4 4 4 4 4 4 4 4 4 4 4 4 4 4 4 4 4 4 4 4 4 4 4 4 4 4 4 4 4 4 4 4 4 4 4 4 4 4 4 4 4 4 4 4 4 4 4 4 4 4 4 4 4 4 4 4 4
      4 4 4 4 4 4 4 4 4 4 4 4 4 4 4 4 4 4 4 4 4 4 4 4 4 4 4 4 4 4 4 4 4 4 4 4 4 4 4 4 4 4 4 4 4 4 4 4 4 4 4 4 4 4 4 4 4 4 4 4
      4 4 4 4 4 4 4 4 4 4 4 4 4 4 4 4 4 4 4 4 4 4 4 4 4 4 4 4 4 4 4 4 4 4 4 4 4 4 4 4 4 4 4 4 4 4 4 4 4 4 4 4 4 4 4 4 4 4 4 4
      4 4 4 4 4 4 4 4 4 4 4 4 4 4 4 4 4 4 4 4 4 4 4 4 4 4 4 4 4 4 4 4 4 4 4 4 4 4 4 4 4 4 4 4 4 4 4 4 4 4 4 4 4 4 4 4 4 4 4 4
      4 4 4 4 4 4 4 4 4 4 4 4 4 4 4 4 4 4 4 4 4 4 4 4 4 4 4 4 4 4 4 4 4 4 4 4 4 4 4 4 4 4 4 4 4 4 4 4 4 4 1 1 4 4 1 1 1 1 1 4
      4 4 4 4 4 4 4 4 4 4 1 1 1 1 1 1 1 1 1 1 4 4 1 1 1 1 1 1 1 1 1 1 4 4 1 1 4 4 4 4 4 4 4 4 4 4 4 4 4 4 4 4 4 4 4 4 4 4 4 4
      4 4 4 4 4 4 4 4 4 4 4 4 4 4 4 4 4 4 4 4 4 4 4 4 4 4 4 4 4 4 4 4 4 4 4 4 4 4 4 4 4 4 4 4 4 4 4 4 4 4 4 4 4 4 4 4 4 4 4 4
      4 4 4 4 4 4 4 4 4 4 4 4 4 4 4 4 4 4 4 4 4 4 4 4 4 4 4 4 4 4 4 4 4 4 4 4 4 4 4 4 4 4 4 4 4 4 4 4 4 4 4 4 4 4 4 4 4 4 4 4
      4 4 4 4 4 4 4 4 4 4 4 4 4 4 4 4 4 4 4 4 4 4 4 4 4 4 4 4 4 4 4 4 4 4 4 4 4 4 4 4 4 4 4 4 4 4 4 4 4 4 4 4 4 4 4 4 4 4 4 4
      4 4 4 4 4 4 4 4 4 4 4 4 4 4 4 4 4 4 4 4 4 4 4 4 4 4 4 4 4 4 4 4 4 4 4 4 4 4 4 4 4 4 4 4 4 4 4 4 4 4 4 4 4 4 4 4 4 4 4 4
      4 4 4 4 4 4 4 4 4 4 4 4 4 4 4 4 4 4 4 4 4 4 4 4 4 4 4 4 4 4 4 4 4 4 4 4 4 4 4 4 4 4 4 4 4 4 4 1 1 1 4 1 1 1 4 4 1 1 1 1
      1 1 1 1 1 1 1 1 1 1 1 1 1 1 4 4 4 4 4 4 4 4 4 4 4 4 4 4 4 4 4 4 4 4 4 4 4 4 4 4 4 4 4 4 4 4 4 4 4 4 4 4 4 4 4 4 4 4 4 4
      4 4 4 4 4 4 4 4 4 4 4 4 4 4 4 4 4 4 4 4 4 4 4 4 4 4 4 4 4 4 4 4 4 4 4 4 4 4 4 4 4 4 4 4 4 4 4 4 4 4 4 4 4 4 4 4 4 4 4 4
      4 4 4 4 4 4 4 4 4 4 4 4 4 4 4 4 4 4 4 4 4 4 4 4 4 4 4 4 4 4 4 4 4 4 4 4 4 4 4 4 4 4 4 4 4 4 4 4 4 4 4 4 4 4 4 4 4 4 4 4
      4 4 4 4 4 4 4 4 4 4 4 4 4 4 4 4 4 4 4 4 4 4 4 4 4 4 4 4 4 4 4 4 4 4 4 4 4 4 4 4 4 4 4 4 4 4 4 4 4 4 4 4 4 4 4 4 4 4 4 4
      4 4 4 4 4 4 4 4 4 4 4 4 4 4 4 4 4 4 4 4 4 4 4 4 4 4 4 4 4 4 4 4 4 4 4 4 4 4 4 4 4 4 4 4 4 4 4 4 4 4 4 4 4 4 4 4 4 4 4 4
      4 4 4 4 4 4 4 4 4 4 4 4 4 4 4 4 4 4 4 4 4 4 4 4 4 4 4 4 4 4 4 4 4 4 4 4 4 4 4 4 4 4 4 4 4 4 4 4 4 4 4 4 4 4 4 4 4 4 4 4
      4 4 4 4 4 4 4 4 4 4 4 4 4 4 4 4 4 4 4 4 4 4 4 4 4 4 4 4 4 4 4 4 4 4 4 4 4 4 4 4 4 4 4 4 4 4 4 4 4 4 4 4 4 4 4 4 4 4 4 4
      4 4 4 1 4 1 4 4 1 1 1 1 1 1 1 1 1 4 1 1 4 4 1 4 4 4 4 4 4 4 4 4 4 4 4 4 4 1 1 4 4 1 1 4 4 4 4 4 4 4 4 4 4 4 4 4 4 4 4 4
      4 4 4 4 4 4 4 4 1 1 4 4 1 1 4 4 4 4 4 4 4 4 4 4 4 4 4 4 4 4 4 4 4 4 1 1 1 1 4 4 1 1 4 1 4 4 4 4 4 4 4 4 1 1 4 4 4 4 4 4
      4 4 1 4 1 1 1 1 1 4 4 4 4 4 4 4 4 4 4 4 4 4 4 4 4 4 4 4 4 4 4 4 4 4 4 4 4 4 4 4 4 4 4 4 4 4 4 4 4 4 4 4 4 4 4 1 4 4 4 4
      4 4 4 4 1 1 4 4 4 4 4 1 1 4 4 1 4 4 4 4 4 4 4 4 4 4 4 4 4 4 4 4 4 4 4 4 4 4 4 4 4 4 4 4 4 4 4 4 4 4 4 4 4 4 4 4 4 4 4 4
      4 4 4 4 4 4 4 4 4 4 4 4 4 4 4 4 4 4 4 4 4 4 4 4 4 4 4 4 4 4 4 4 4 4 4 4 4 4 4 4 4 4 4 4 4 4 4 4 4 4 4 4 4 4 4 4 4 4 4 4
      4 4 4 4 4 4 4 4 4 4 4 4 4 4 4 4 4 4 4 4 4 4 4 4 4 4 4 4 4 4 4 4 4 4 4 4 4 4 4 4 4 4 4 4 4 4 4 4 4 4 4 4 4 4 4 4 4 4 4 4
      4 4 4 4 4 4 4 4 4 4 4 4 4 4 4 4 4 4 4 4 4 4 4 4 4 4 4 4 4 4 1 1 4 4 1 1 4 4 4 4 4 4 4 4 4 4 4 4 4 4 4 4 4 4 4 4 4 4 4 4
      4 4 4 4 4 4 4 4 4 4 4 4 4 4 4 1 4 4 4 4 4 4 4 4 4 4 1 1 4 4 1 1 1 1 4 4 4 4 4 4 4 4 4 4 4 4 4 4 4 4 4 4 4 4 1 1 1 4 1 1
      4 4 4 4 4 4 4 4 4 4 4 4 4 4 4 4 4 4 4 4 4 4 1 1 4 4 1 1 4 4 4 4 4 4 4 4 4 4 4 4 4 4 4 4 4 4 4 4 4 4 1 1 4 4 1 1 4 1 4 4
      4 4 4 4 4 4 4 4 4 4 4 4 4 4 4 4 4 4 4 4 4 1 4 4 4 4 4 4 4 4 4 4 4 4 4 4 4 4 4 4 4 1 4 1 4 4 4 1 1 4 1 1 1 1 1 1 1 1 1 1
      1 1 1 1 1 4 1 1 4 4 1 1 1 1 4 4 1 1 4 4 4 4 4 1 1 1 1 4 4 4 4 4 4 4 4 4 4 4 4 4 4 4 4 4 4 4 4 1 4 4 4 4 4 4 4 4 4 4 4 4
      4 4 4 4 4 4 4 4 4 4 4 4 4 4 1 1 4 4 1 1 4 4 4 4 4 4 4 4 4 4 4 4 4 4 4 4 4 4 4 1 4 4 4 4 4 4 4 4 4 4 4 4 4 4 4 4 4 4 4 4
      4 4 4 4 4 4 4 4 4 4 4 4 4 4 4 4 4 4 4 4 4 4 4 4 4 4 4 4 4 4 4 4 4 4 4 4 4 4 4 4 4 4 4 4 4 4 4 4 4 4 4 4 4 4 4 4 4 4 4 4
      4 4 4 4 4 4 4 4 4 4 4 4 4 4 4 4 4 4 4 4 4 4 4 4 4 4 4 4 4 4 4 4 4 4 4 4 4 4 4 4 4 4 4 4 4 4 4 4 4 4 4 4 4 4 4 4 4 4 1 1
      1 4 4 4 4 4 4 4 4 4 4 4 4 4 4 4 4 4 4 4 4 4 4 4 1 1 1 4 4 4 1 1 4 1 1 1 1 1 1 4 4 4 4 4 4 1 1 1 1 1 1 1 1 1 1 1 1 1 1 1
      1 1 1 1 1 1 4 4 1 1 4 4 1 1 4 4 4 4 4 4 4 4 4 1 1 1 1 1 1 1 4 4 4 4 4 4 1 1 1 1 1 4 4 4 4 4 1 1 1 1 1 1 1 1 1 4 4 1 1 1
      1 1 1 1 1 1 1 1 1 4 4 4 4 4 1 1 1 1 1 1 1 1 1 1 1 1 1 1 1 1 1 1 1 1 1 1 1 1 1 1 1 1 1 1 1 1 1 1 1 1 1 1 1 1 1 1 1 1 1 1
      1 1 4 4 4 1 1 1 1 1 1 1 1 1 1 1 1 1 1 1 1 1 1 1 1 1 1 1 1 1 1 1 1 1 1 1 1 1 1 1 1 1 1 1 1 1 1 1 1 1 1 1 1 1 1 1 1 1 1 4
      1 1 1 1 1 1 1 1 1 1 1 1 1 1 1 1 1 1 1 1 1 1 1 1 1 1 1 1 1 1 1 1 1 1 1 1 1 1 1 1 1 1 1 1 1 1 1 1 1 1 1 1 1 1 1 1 1 1 1 1
      1 1 1 1 1 1 1 1 1 1 1 1 1 1 1 1 1 1 1 1 1 1 1 1 1 1 1 1 1 1 1 1 1 1 1 1 1 1 1 1 1 1 1 1 1 1 1 1 1 1 1 1 1 1 1 1 1 1 1 1
      1 1 1 1 1 1 1 1 1 1 1 1 1 1 1 1 1 1 1 1 1 1 1 1 1 1 1 1 1 1 1 1 1 1 1 1 1 1 1 1 1 1 1 1 1 1 1 1 1 1 1 1 1 1 1 1 1 1 1 1
      1 1 1 1 1 1 1 1 1 1 1 1 1 1 1 1 1 1 1 1 1 1 1 1 1 1 1 1 1 1 1 1 1 1 1 1 1 1 1 1 1 1 1 1 1 1 1 1 1 1 1 1 1 1 1 1 1 1 1 1
      1 1 1 1 1 1 1 1 1 1 1 1 1 1 1 1 1 1 1 1 1 1 1 1 1 1 1 1 1 1 1 1 1 1 1 1 1 1 1 1 1 1 1 1 1 1 1 1 1 1 1 1 1 1 1 1 1 1 1 1
      1 1 1 1 1 1 1 1 1 1 1 1 1 1 1 1 1 1 1 1 1 1 1 1 1 1 1 1 1 1 1 1 1 1 1 1 1 1 1 1 1 1 1 1 1 1 1 1 1 1 1 1 1 1 1 1 1 1 1 1
      1 1 1 1 1 1 1 1 1 1 1 1 1 1 1 1 1 1 1 1 1 1 1 1 1 1 1 1 1 1 1 1 1 1 1 1 1 1 1 1 1 1 1 1 1 1 1 1 1 1 1 1 1 1 1 1 1 1 1 1
      1 1 1 1 1 1 1 1 1 1 1 1 1 1 1 1 1 1 1 1 1 1 1 1 1 1 1 1 1 1 1 1 1 1 1 1 1 1 1 1 1 1 1 1 1 1 1 1 1 1 1 1 1 1 1 1 1 1 1 1
      1 1 1 1 1 1 1 1 1 1 1 1 1 1 1 1 1 1 1 1 1 1 1 1 1 1 1 1 1 1 1 1 1 1 1 1 1 1 1 1 1 1 1 1 1 1 1 1 1 1 1 1 1 1 1 1 1 1 1 1
      1 1 1 1 1 1 1 1 1 1 1 1 1 1 1 1 1 1 1 1 1 1 1 1 1 1 1 1 1 1 1 1 1 1 1 1 1 1 1 1 1 1 1 1 1 1 1 1 1 1 1 1 1 1 1 1 1 1 1 1
      1 1 1 1 1 1 1 1 1 1 1 1 1 1 1 1 1 1 1 1 1 1 1 1 1 1 1 1 1 1 1 1 1 1 1 1 1 1 1 1 1 1 1 1 1 1 1 1 1 1 1 1 1 1 1 1 1 1 1 1
      1 1 1 1 1 1 1 1 1 1 1 1 1 1 1 1 1 1 1 1 1 1 1 1 1 1 1 1 1 1 1 1 1 1 1 1 1 1 1 1 1 1 1 1 1 1 1 1 1 1 1 1 1 1 1 1 1 1 1 1
      1 1 1 1 1 1 1 1 1 1 1 1 1 1 1 1 1 1 1 1 1 1 1 1 1 1 1 1 1 1 1 1 1 1 1 1 1 1 1 1 1 1 1 1 1 1 1

                  IDOMAIN FOR LAYER 2
      2 2 2 2 2 2 2 2 2 2 2 2 2 2 2 2 2 2 2 2 2 2 2 2 2 2 2 2 2 2 2 2 2 2 2 2 2 2 2 2 2 2 2 2 2 2 2 2 2 2 2 2 2 2 2 2 2 2 2 2
      2 2 2 2 2 2 2 2 2 2 2 2 2 2 2 2 2 2 2 2 2 2 2 2 2 2 2 2 2 2 2 2 2 2 2 2 2 2 2 2 2 2 2 2 2 2 2 2 2 2 2 2 2 2 2 2 2 2 2 2
      2 2 2 2 2 2 2 2 2 2 2 2 2 2 2 2 2 2 2 2 2 2 2 2 2 2 2 2 2 2 2 2 2 2 2 2 2 2 2 2 2 2 2 2 2 2 2 2 2 2 2 2 2 2 2 2 2 2 2 2
      2 2 2 2 2 2 2 2 2 2 2 2 2 2 2 2 2 2 2 2 2 2 2 2 2 2 2 2 2 2 2 2 2 2 2 2 2 2 2 2 2 2 2 2 2 2 2 2 2 2 2 2 2 2 2 2 2 2 2 2
      2 2 2 2 2 2 2 2 2 2 2 2 2 2 2 2 2 2 2 2 2 2 2 2 2 2 2 2 2 2 2 2 2 2 2 2 2 2 2 2 2 2 2 2 2 2 2 2 2 2 2 2 2 2 2 2 2 2 2 2
      2 2 2 2 2 2 2 2 2 2 2 2 2 2 2 2 2 2 2 2 2 2 2 2 2 2 2 2 2 2 2 2 2 2 2 2 2 2 2 2 2 2 2 2 2 2 2 2 2 2 2 2 2 2 2 2 2 2 2 2
      2 2 2 2 2 2 2 2 2 2 2 2 2 2 2 2 2 2 2 2 2 2 2 2 2 2 2 2 2 2 2 2 2 2 2 2 2 2 2 2 2 2 2 2 2 2 2 2 2 2 2 2 2 2 2 2 2 2 2 2
      2 2 2 2 2 2 2 2 2 2 2 2 2 2 2 2 2 2 2 2 2 2 2 2 2 2 2 2 2 2 2 2 2 2 2 2 2 2 2 2 2 2 2 2 2 2 2 2 2 2 2 2 2 2 2 2 2 2 2 2
      2 2 2 2 2 2 2 2 2 2 2 2 2 2 2 2 2 2 2 2 2 2 2 2 2 2 2 2 2 2 2 2 2 2 2 2 2 2 2 2 2 2 2 2 2 2 2 2 2 2 2 2 2 2 2 2 2 2 2 2
      2 2 2 2 2 2 2 2 2 2 2 2 2 2 2 2 2 2 2 2 2 2 2 2 2 2 2 2 2 2 2 2 2 2 2 2 2 2 2 2 2 2 2 2 2 2 2 2 2 2 2 2 2 2 2 2 2 2 2 2
      2 2 2 2 2 2 2 2 2 2 2 2 2 2 2 2 2 2 2 2 2 2 2 2 2 2 2 2 2 2 2 2 2 2 2 2 2 2 2 2 2 2 2 2 2 2 2 2 2 2 2 2 2 2 2 2 2 2 2 2
      2 2 2 2 2 2 2 2 2 2 2 2 2 2 2 2 2 2 2 2 2 2 2 2 2 2 2 2 2 2 2 2 2 2 2 2 2 2 2 2 2 2 2 2 2 2 2 2 2 2 2 2 2 2 2 2 2 2 2 2
      2 2 2 2 2 2 2 2 2 2 2 2 2 2 2 2 2 2 2 2 2 2 2 2 2 2 2 2 2 2 2 2 2 2 2 2 2 2 2 2 2 2 2 2 2 2 2 2 2 2 2 2 2 2 2 2 2 2 2 2
      2 2 2 2 2 2 2 2 2 2 2 2 2 2 2 2 2 2 2 2 2 2 2 2 2 2 2 2 2 2 2 2 2 2 2 2 2 2 2 2 2 2 2 2 2 2 2 2 2 2 2 2 2 2 2 2 2 2 2 2
      2 2 2 2 2 2 2 2 2 2 2 2 2 2 2 2 2 2 2 2 2 2 2 2 2 2 2 2 2 2 2 2 2 2 2 2 2 2 2 2 2 2 2 2 2 2 2 2 2 2 2 2 2 2 2 2 2 2 2 2
      2 2 2 2 2 2 2 2 2 2 2 2 2 2 2 2 2 2 2 2 2 2 2 2 2 2 2 2 2 2 2 2 2 2 2 2 2 2 2 2 2 2 2 2 2 2 2 2 2 2 2 2 2 2 2 2 2 2 2 2
      2 2 2 2 2 2 2 2 2 2 2 2 2 2 2 2 2 2 2 2 2 2 2 2 2 2 2 2 2 2 2 2 2 2 2 2 2 2 2 2 2 2 2 2 2 2 2 2 2 2 2 2 2 2 2 2 2 2 2 2
      2 2 2 2 2 2 2 2 2 2 2 2 2 2 2 2 2 2 2 2 2 2 2 2 2 2 2 2 2 2 2 2 2 2 2 2 2 2 2 2 2 2 2 2 2 2 2 2 2 2 2 2 2 2 2 2 2 2 2 2
      2 2 2 2 2 2 2 2 2 2 2 2 2 2 2 2 2 2 2 2 2 2 2 2 2 2 2 2 2 2 2 2 2 2 2 2 2 2 2 2 2 2 2 2 2 2 2 2 2 2 2 2 2 2 2 2 2 2 2 2
      2 2 2 2 2 2 2 2 2 2 2 2 2 2 2 2 2 2 2 2 2 2 2 2 2 2 2 2 2 2 2 2 2 2 2 2 2 2 2 2 2 2 2 2 2 2 2 2 2 2 2 2 2 2 2 2 2 2 2 2
      2 2 2 2 2 2 2 2 2 2 2 2 2 2 2 2 2 2 2 2 2 2 2 2 2 2 2 2 2 2 2 2 2 2 2 2 2 2 2 2 2 2 2 2 2 2 2 2 2 2 2 2 2 2 2 2 2 2 2 2
      2 2 2 2 2 2 2 2 2 2 2 2 2 2 2 2 2 2 2 2 2 2 2 2 2 2 2 2 2 2 2 2 2 2 2 2 2 2 2 2 2 2 2 2 2 2 2 2 2 2 2 2 2 2 2 2 2 2 2 2
      2 2 2 2 2 2 2 2 2 2 2 2 2 2 2 2 2 2 2 2 2 2 2 2 2 2 2 2 2 2 2 2 2 2 2 2 2 2 2 2 2 2 2 2 2 2 2 2 2 2 2 2 2 2 2 2 2 2 2 2
      2 2 2 2 2 2 2 2 2 2 2 2 2 2 2 2 2 2 2 2 2 2 2 2 2 2 2 2 2 2 2 2 2 2 2 2 2 2 2 2 2 2 2 2 2 2 2 2 2 2 2 2 2 2 2 2 2 2 2 2
      2 2 2 2 2 2 2 2 2 2 2 2 2 2 2 2 2 2 2 2 2 2 2 2 2 2 2 2 2 2 2 2 2 2 2 2 2 2 2 2 2 2 2 2 2 2 2 2 2 2 2 2 2 2 2 2 2 2 2 2
      2 2 2 2 2 2 2 2 2 2 2 2 2 2 2 2 2 2 2 2 2 2 2 2 2 2 2 2 2 2 2 2 2 2 2 2 2 2 2 2 2 2 2 2 2 2 2 2 2 2 2 2 2 2 2 2 2 2 2 2
      2 2 2 2 2 2 2 2 2 2 2 2 2 2 2 2 2 2 2 2 2 2 2 2 2 2 2 2 2 2 2 2 2 2 2 2 2 2 2 2 2 2 2 2 2 2 2 2 2 2 2 2 2 2 2 2 2 2 2 2
      2 2 2 2 2 2 2 2 2 2 2 2 2 2 2 2 2 2 2 2 2 2 2 2 2 2 2 2 2 2 2 2 2 2 2 2 2 2 2 2 2 2 2 2 2 2 2 2 2 2 2 2 2 2 2 2 2 2 2 2
      2 2 2 2 2 2 2 2 2 2 2 2 2 2 2 2 2 2 2 2 2 2 2 2 2 2 2 2 2 2 2 2 2 2 2 2 2 2 2 2 2 2 2 2 2 2 2 2 2 2 2 2 2 2 2 2 2 2 2 2
      2 2 2 2 2 2 2 2 2 2 2 2 2 2 2 2 2 2 2 2 2 2 2 2 2 2 2 2 2 2 2 2 2 2 2 2 2 2 2 2 2 2 2 2 2 2 2 2 2 2 2 2 2 2 2 2 2 2 2 2
      2 2 2 2 2 2 2 2 2 2 2 2 2 2 2 2 2 2 2 2 2 2 2 2 2 2 2 2 2 2 2 2 2 2 2 2 2 2 2 2 2 2 2 2 2 2 2 2 2 2 2 2 2 2 2 2 2 2 2 2
      2 2 2 2 2 2 2 2 2 2 2 2 2 2 2 2 2 2 2 2 2 2 2 2 2 2 2 2 2 2 2 2 2 2 2 2 2 2 2 2 2 2 2 2 2 2 2 2 2 2 2 2 2 2 2 2 2 2 2 2
      2 2 2 2 2 2 2 2 2 2 2 2 2 2 2 2 2 2 2 2 2 2 2 2 2 2 2 2 2 2 2 2 2 2 2 2 2 2 2 2 2 2 2 2 2 2 2 2 2 2 2 2 2 2 2 2 2 2 2 2
      2 2 2 2 2 2 2 2 2 2 2 2 2 2 2 2 2 2 2 2 2 2 2 2 2 2 2 2 2 2 2 2 2 2 2 2 2 2 2 2 2 2 2 2 2 2 2 2 2 2 2 2 2 2 2 2 2 2 2 2
      2 2 2 2 2 2 2 2 2 2 2 2 2 2 2 2 2 2 2 2 2 2 2 2 2 2 2 2 2 2 2 2 2 2 2 2 2 2 2 2 2 2 2 2 2 2 2 2 2 2 2 2 2 2 2 2 2 2 2 2
      2 2 2 2 2 2 2 2 2 2 2 2 2 2 2 2 2 2 2 2 2 2 2 2 2 2 2 2 2 2 2 2 2 2 2 2 2 2 2 2 2 2 2 2 2 2 2 2 2 2 2 2 2 2 2 2 2 2 2 2
      2 2 2 2 2 2 2 2 2 2 2 2 2 2 2 2 2 2 2 2 2 2 2 2 2 2 2 2 2 2 2 2 2 2 2 2 2 2 2 2 2 2 2 2 2 2 2 2 2 2 2 2 2 2 2 2 2 2 2 2
      2 2 2 2 2 2 2 2 2 2 2 2 2 2 2 2 2 2 2 2 2 2 2 2 2 2 2 2 2 2 2 2 2 2 2 2 2 2 2 2 2 2 2 2 2 2 2 2 2 2 2 2 2 2 2 2 2 2 2 2
      2 2 2 2 2 2 2 2 2 2 2 2 2 2 2 2 2 2 2 2 2 2 2 2 2 2 2 2 2 2 2 2 2 2 2 2 2 2 2 2 2 2 2 2 2 2 2 2 2 2 2 2 2 2 2 2 2 2 2 2
      2 2 2 2 2 2 2 2 2 2 2 2 2 2 2 2 2 2 2 2 2 2 2 2 2 2 2 2 2 2 2 2 2 2 2 2 2 2 2 2 2 2 2 2 2 2 2 2 2 2 2 2 2 2 2 2 2 2 2 2
      2 2 2 2 2 2 2 2 2 2 2 2 2 2 2 2 2 2 2 2 2 2 2 2 2 2 2 2 2 2 2 2 2 2 2 2 2 2 2 2 2 2 2 2 2 2 2 2 2 2 2 2 2 2 2 2 2 2 2 2
      2 2 2 2 2 2 2 2 2 2 2 2 2 2 2 2 2 2 2 2 2 2 2 2 2 2 2 2 2 2 2 2 2 2 2 2 2 2 2 2 2 2 2 2 2 2 2 2 2 2 2 2 2 2 2 2 2 2 2 2
      2 2 2 2 2 2 2 2 2 2 2 2 2 2 2 2 2 2 2 2 2 2 2 2 2 2 2 2 2 2 2 2 2 2 2 2 2 2 2 2 2 2 2 2 2 2 2 2 2 2 2 2 2 2 2 2 2 2 2 2
      2 2 2 2 2 2 2 2 2 2 2 2 2 2 2 2 2 2 2 2 2 2 2 2 2 2 2 2 2 2 2 2 2 2 2 2 2 2 2 2 2 2 2 2 2 2 2 2 2 2 2 2 2 2 2 2 2 2 2 2
      2 2 2 2 2 2 2 2 2 2 2 2 2 2 2 2 2 2 2 2 2 2 2 2 2 2 2 2 2 2 2 2 2 2 2 2 2 2 2 2 2 2 2 2 2 2 2 2 2 2 2 2 2 2 2 2 2 2 2 2
      2 2 2 2 2 2 2 2 2 2 2 2 2 2 2 2 2 2 2 2 2 2 2 2 2 2 2 2 2 2 2 2 2 2 2 2 2 2 2 2 2 2 2 2 2 2 2 2 2 2 2 2 2 2 2 2 2 2 2 2
      2 2 2 2 2 2 2 2 2 2 2 2 2 2 2 2 2 2 2 2 2 2 2 2 2 2 2 2 2 2 2 2 2 2 2 2 2 2 2 2 2 2 2 2 2 2 2 2 2 2 2 2 2 2 2 2 2 2 2 2
      2 2 2 2 2 2 2 2 2 2 2 2 2 2 2 2 2 2 2 2 2 2 2 2 2 2 2 2 2 2 2 2 2 2 2 2 2 2 2 2 2 2 2 2 2 2 2 2 2 2 2 2 2 2 2 2 2 2 2 2
      2 2 2 2 2 2 2 2 2 2 2 2 2 2 2 2 2 2 2 2 2 2 2 2 2 2 2 2 2 2 2 2 2 2 2 2 2 2 2 2 2 2 2 2 2 2 2 2 2 2 2 2 2 2 2 2 2 2 2 2
      2 2 2 2 2 2 2 2 2 2 2 2 2 2 2 2 2 2 2 2 2 2 2 2 2 2 2 2 2 2 2 2 2 2 2 2 2 2 2 2 2 2 2 2 2 2 2 2 2 2 2 2 2 2 2 2 2 2 2 2
      2 2 2 2 2 2 2 2 2 2 2 2 2 2 2 2 2 2 2 2 2 2 2 2 2 2 2 2 2 2 2 2 2 2 2 2 2 2 2 2 2 2 2 2 2 2 2 2 2 2 2 2 2 2 2 2 2 2 2 2
      2 2 2 2 2 2 2 2 2 2 2 2 2 2 2 2 2 2 2 2 2 2 2 2 2 2 2 2 2 2 2 2 2 2 2 2 2 2 2 2 2 2 2 2 2 2 2 2 2 2 2 2 2 2 2 2 2 2 2 2
      2 2 2 2 2 2 2 2 2 2 2 2 2 2 2 2 2 2 2 2 2 2 2 2 2 2 2 2 2 2 2 2 2 2 2 2 2 2 2 2 2 2 2 2 2 2 2 2 2 2 2 2 2 2 2 2 2 2 2 2
      2 2 2 2 2 2 2 2 2 2 2 2 2 2 2 2 2 2 2 2 2 2 2 2 2 2 2 2 2 2 2 2 2 2 2 2 2 2 2 2 2 2 2 2 2 2 2 2 2 2 2 2 2 2 2 2 2 2 2 2
      2 2 2 2 2 2 2 2 2 2 2 2 2 2 2 2 2 2 2 2 2 2 2 2 2 2 2 2 2 2 2 2 2 2 2 2 2 2 2 2 2 2 2 2 2 2 2 2 2 2 2 2 2 2 2 2 2 2 2 2
      2 2 2 2 2 2 2 2 2 2 2 2 2 2 2 2 2 2 2 2 2 2 2 2 2 2 2 2 2 2 2 2 2 2 2 2 2 2 2 2 2 2 2 2 2 2 2 2 2 2 2 2 2 2 2 2 2 2 2 2
      2 2 2 2 2 2 2 2 2 2 2 2 2 2 2 2 2 2 2 2 2 2 2 2 2 2 2 2 2 2 2 2 2 2 2 2 2 2 2 2 2 2 2 2 2 2 2 2 2 2 2 2 2 2 2 2 2 2 2 2
      2 2 2 2 2 2 2 2 2 2 2 2 2 2 2 2 2 2 2 2 2 2 2 2 2 2 2 2 2 2 2 2 2 2 2 2 2 2 2 2 2 2 2 2 2 2 2 2 2 2 2 2 2 2 2 2 2 2 2 2
      2 2 2 2 2 2 2 2 2 2 2 2 2 2 2 2 2 2 2 2 2 2 2 2 2 2 2 2 2 2 2 2 2 2 2 2 2 2 2 2 2 2 2 2 2 2 2 2 2 2 2 2 2 2 2 2 2 2 2 2
      2 2 2 2 2 2 2 2 2 2 2 2 2 2 2 2 2 2 2 2 2 2 2 2 2 2 2 2 2 2 2 2 2 2 2 2 2 2 2 2 2 2 2 2 2 2 2 2 2 2 2 2 2 2 2 2 2 2 2 2
      2 2 2 2 2 2 2 2 2 2 2 2 2 2 2 2 2 2 2 2 2 2 2 2 2 2 2 2 2 2 2 2 2 2 2 2 2 2 2 2 2 2 2 2 2 2 2 2 2 2 2 2 2 2 2 2 2 2 2 2
      2 2 2 2 2 2 2 2 2 2 2 2 2 2 2 2 2 2 2 2 2 2 2 2 2 2 2 2 2 2 2 2 2 2 2 2 2 2 2 2 2 2 2 2 2 2 2 2 2 2 2 2 2 2 2 2 2 2 2 2
      2 2 2 2 2 2 2 2 2 2 2 2 2 2 2 2 2 2 2 2 2 2 2 2 2 2 2 2 2 2 2 2 2 2 2 2 2 2 2 2 2 2 2 2 2 2 2 2 2 2 2 2 2 2 2 2 2 2 2 2
      2 2 2 2 2 2 2 2 2 2 2 2 2 2 2 2 2 2 2 2 2 2 2 2 2 2 2 2 2 2 2 2 2 2 2 2 2 2 2 2 2 2 2 2 2 2 2 2 2 2 2 2 2 2 2 2 2 2 2 2
      2 2 2 2 2 2 2 2 2 2 2 2 2 2 2 2 2 2 2 2 2 2 2 2 2 2 2 2 2 2 2 2 2 2 2 2 2 2 2 2 2 2 2 2 2 2 2 2 2 2 2 2 2 2 2 2 2 2 2 2
      2 2 2 2 2 2 2 2 2 2 2 2 2 2 2 2 2 2 2 2 2 2 2 2 2 2 2 2 2 2 2 2 2 2 2 2 2 2 2 2 2 2 2 2 2 2 2 2 2 2 2 2 2 2 2 2 2 2 2 2
      2 2 2 2 2 2 2 2 2 2 2 2 2 2 2 2 2 2 2 2 2 2 2 2 2 2 2 2 2 2 2 2 2 2 2 2 2 2 2 2 2 2 2 2 2 2 2 2 2 2 2 2 2 2 2 2 2 2 2 2
      2 2 2 2 2 2 2 2 2 2 2 2 2 2 2 2 2 2 2 2 2 2 2 2 2 2 2 2 2 2 2 2 2 2 2 2 2 2 2 2 2 2 2 2 2 2 2 2 2 2 2 2 2 2 2 2 2 2 2 2
      2 2 2 2 2 2 2 2 2 2 2 2 2 2 2 2 2 2 2 2 2 2 2 2 2 2 2 2 2 2 2 2 2 2 2 2 2 2 2 2 2 2 2 2 2 2 2 2 2 2 2 2 2 2 2 2 2 2 2 2
      2 2 2 2 2 2 2 2 2 2 2 2 2 2 2 2 2 2 2 2 2 2 2 2 2 2 2 2 2 2 2 2 2 2 2 2 2 2 2 2 2 2 2 2 2 2 2 2 2 2 2 2 2 2 2 2 2 2 2 2
      2 2 2 2 2 2 2 2 2 2 2 2 2 2 2 2 2 2 2 2 2 2 2 2 2 2 2 2 2 2 2 2 2 2 2 2 2 2 2 2 2 2 2 2 2 2 2 2 2 2 2 2 2 2 2 2 2 2 2 2
      2 2 2 2 2 2 2 2 2 2 2 2 2 2 2 2 2 2 2 2 2 2 2 2 2 2 2 2 2 2 2 2 2 2 2 2 2 2 2 2 2 2 2 2 2 2 2

                  IDOMAIN FOR LAYER 3
      3 3 3 3 3 3 3 3 3 3 3 3 3 3 3 3 3 3 3 3 3 3 3 3 3 3 3 3 3 3 3 3 3 3 3 3 3 3 3 3 3 3 3 3 3 3 3 3 3 3 3 3 3 3 3 3 3 3 3 3
      3 3 3 3 3 3 3 3 3 3 3 3 3 3 3 3 3 3 3 3 3 3 3 3 3 3 3 3 3 3 3 3 3 3 3 3 3 3 3 3 3 3 3 3 3 3 3 3 3 3 3 3 3 3 3 3 3 3 3 3
      3 3 3 3 3 3 3 3 3 3 3 3 3 3 3 3 3 3 3 3 3 3 3 3 3 3 3 3 3 3 3 3 3 3 3 3 3 3 3 3 3 3 3 3 3 3 3 3 3 3 3 3 3 3 3 3 3 3 3 3
      3 3 3 3 3 3 3 3 3 3 3 3 3 3 3 3 3 3 3 3 3 3 3 3 3 3 3 3 3 3 3 3 3 3 3 3 3 3 3 3 3 3 3 3 3 3 3 3 3 3 3 3 3 3 3 3 3 3 3 3
      3 3 3 3 3 3 3 3 3 3 3 3 3 3 3 3 3 3 3 3 3 3 3 3 3 3 3 3 3 3 3 3 3 3 3 3 3 3 3 3 3 3 3 3 3 3 3 3 3 3 3 3 3 3 3 3 3 3 3 3
      3 3 3 3 3 3 3 3 3 3 3 3 3 3 3 3 3 3 3 3 3 3 3 3 3 3 3 3 3 3 3 3 3 3 3 3 3 3 3 3 3 3 3 3 3 3 3 3 3 3 3 3 3 3 3 3 3 3 3 3
      3 3 3 3 3 3 3 3 3 3 3 3 3 3 3 3 3 3 3 3 3 3 3 3 3 3 3 3 3 3 3 3 3 3 3 3 3 3 3 3 3 3 3 3 3 3 3 3 3 3 3 3 3 3 3 3 3 3 3 3
      3 3 3 3 3 3 3 3 3 3 3 3 3 3 3 3 3 3 3 3 3 3 3 3 3 3 3 3 3 3 3 3 3 3 3 3 3 3 3 3 3 3 3 3 3 3 3 3 3 3 3 3 3 3 3 3 3 3 3 3
      3 3 3 3 3 3 3 3 3 3 3 3 3 3 3 3 3 3 3 3 3 3 3 3 3 3 3 3 3 3 3 3 3 3 3 3 3 3 3 3 3 3 3 3 3 3 3 3 3 3 3 3 3 3 3 3 3 3 3 3
      3 3 3 3 3 3 3 3 3 3 3 3 3 3 3 3 3 3 3 3 3 3 3 3 3 3 3 3 3 3 3 3 3 3 3 3 3 3 3 3 3 3 3 3 3 3 3 3 3 3 3 3 3 3 3 3 3 3 3 3
      3 3 3 3 3 3 3 3 3 3 3 3 3 3 3 3 3 3 3 3 3 3 3 3 3 3 3 3 3 3 3 3 3 3 3 3 3 3 3 3 3 3 3 3 3 3 3 3 3 3 3 3 3 3 3 3 3 3 3 3
      3 3 3 3 3 3 3 3 3 3 3 3 3 3 3 3 3 3 3 3 3 3 3 3 3 3 3 3 3 3 3 3 3 3 3 3 3 3 3 3 3 3 3 3 3 3 3 3 3 3 3 3 3 3 3 3 3 3 3 3
      3 3 3 3 3 3 3 3 3 3 3 3 3 3 3 3 3 3 3 3 3 3 3 3 3 3 3 3 3 3 3 3 3 3 3 3 3 3 3 3 3 3 3 3 3 3 3 3 3 3 3 3 3 3 3 3 3 3 3 3
      3 3 3 3 3 3 3 3 3 3 3 3 3 3 3 3 3 3 3 3 3 3 3 3 3 3 3 3 3 3 3 3 3 3 3 3 3 3 3 3 3 3 3 3 3 3 3 3 3 3 3 3 3 3 3 3 3 3 3 3
      3 3 3 3 3 3 3 3 3 3 3 3 3 3 3 3 3 3 3 3 3 3 3 3 3 3 3 3 3 3 3 3 3 3 3 3 3 3 3 3 3 3 3 3 3 3 3 3 3 3 3 3 3 3 3 3 3 3 3 3
      3 3 3 3 3 3 3 3 3 3 3 3 3 3 3 3 3 3 3 3 3 3 3 3 3 3 3 3 3 3 3 3 3 3 3 3 3 3 3 3 3 3 3 3 3 3 3 3 3 3 3 3 3 3 3 3 3 3 3 3
      3 3 3 3 3 3 3 3 3 3 3 3 3 3 3 3 3 3 3 3 3 3 3 3 3 3 3 3 3 3 3 3 3 3 3 3 3 3 3 3 3 3 3 3 3 3 3 3 3 3 3 3 3 3 3 3 3 3 3 3
      3 3 3 3 3 3 3 3 3 3 3 3 3 3 3 3 3 3 3 3 3 3 3 3 3 3 3 3 3 3 3 3 3 3 3 3 3 3 3 3 3 3 3 3 3 3 3 3 3 3 3 3 3 3 3 3 3 3 3 3
      3 3 3 3 3 3 3 3 3 3 3 3 3 3 3 3 3 3 3 3 3 3 3 3 3 3 3 3 3 3 3 3 3 3 3 3 3 3 3 3 3 3 3 3 3 3 3 3 3 3 3 3 3 3 3 3 3 3 3 3
      3 3 3 3 3 3 3 3 3 3 3 3 3 3 3 3 3 3 3 3 3 3 3 3 3 3 3 3 3 3 3 3 3 3 3 3 3 3 3 3 3 3 3 3 3 3 3 3 3 3 3 3 3 3 3 3 3 3 3 3
      3 3 3 3 3 3 3 3 3 3 3 3 3 3 3 3 3 3 3 3 3 3 3 3 3 3 3 3 3 3 3 3 3 3 3 3 3 3 3 3 3 3 3 3 3 3 3 3 3 3 3 3 3 3 3 3 3 3 3 3
      3 3 3 3 3 3 3 3 3 3 3 3 3 3 3 3 3 3 3 3 3 3 3 3 3 3 3 3 3 3 3 3 3 3 3 3 3 3 3 3 3 3 3 3 3 3 3 3 3 3 3 3 3 3 3 3 3 3 3 3
      3 3 3 3 3 3 3 3 3 3 3 3 3 3 3 3 3 3 3 3 3 3 3 3 3 3 3 3 3 3 3 3 3 3 3 3 3 3 3 3 3 3 3 3 3 3 3 3 3 3 3 3 3 3 3 3 3 3 3 3
      3 3 3 3 3 3 3 3 3 3 3 3 3 3 3 3 3 3 3 3 3 3 3 3 3 3 3 3 3 3 3 3 3 3 3 3 3 3 3 3 3 3 3 3 3 3 3 3 3 3 3 3 3 3 3 3 3 3 3 3
      3 3 3 3 3 3 3 3 3 3 3 3 3 3 3 3 3 3 3 3 3 3 3 3 3 3 3 3 3 3 3 3 3 3 3 3 3 3 3 3 3 3 3 3 3 3 3 3 3 3 3 3 3 3 3 3 3 3 3 3
      3 3 3 3 3 3 3 3 3 3 3 3 3 3 3 3 3 3 3 3 3 3 3 3 3 3 3 3 3 3 3 3 3 3 3 3 3 3 3 3 3 3 3 3 3 3 3 3 3 3 3 3 3 3 3 3 3 3 3 3
      3 3 3 3 3 3 3 3 3 3 3 3 3 3 3 3 3 3 3 3 3 3 3 3 3 3 3 3 3 3 3 3 3 3 3 3 3 3 3 3 3 3 3 3 3 3 3 3 3 3 3 3 3 3 3 3 3 3 3 3
      3 3 3 3 3 3 3 3 3 3 3 3 3 3 3 3 3 3 3 3 3 3 3 3 3 3 3 3 3 3 3 3 3 3 3 3 3 3 3 3 3 3 3 3 3 3 3 3 3 3 3 3 3 3 3 3 3 3 3 3
      3 3 3 3 3 3 3 3 3 3 3 3 3 3 3 3 3 3 3 3 3 3 3 3 3 3 3 3 3 3 3 3 3 3 3 3 3 3 3 3 3 3 3 3 3 3 3 3 3 3 3 3 3 3 3 3 3 3 3 3
      3 3 3 3 3 3 3 3 3 3 3 3 3 3 3 3 3 3 3 3 3 3 3 3 3 3 3 3 3 3 3 3 3 3 3 3 3 3 3 3 3 3 3 3 3 3 3 3 3 3 3 3 3 3 3 3 3 3 3 3
      3 3 3 3 3 3 3 3 3 3 3 3 3 3 3 3 3 3 3 3 3 3 3 3 3 3 3 3 3 3 3 3 3 3 3 3 3 3 3 3 3 3 3 3 3 3 3 3 3 3 3 3 3 3 3 3 3 3 3 3
      3 3 3 3 3 3 3 3 3 3 3 3 3 3 3 3 3 3 3 3 3 3 3 3 3 3 3 3 3 3 3 3 3 3 3 3 3 3 3 3 3 3 3 3 3 3 3 3 3 3 3 3 3 3 3 3 3 3 3 3
      3 3 3 3 3 3 3 3 3 3 3 3 3 3 3 3 3 3 3 3 3 3 3 3 3 3 3 3 3 3 3 3 3 3 3 3 3 3 3 3 3 3 3 3 3 3 3 3 3 3 3 3 3 3 3 3 3 3 3 3
      3 3 3 3 3 3 3 3 3 3 3 3 3 3 3 3 3 3 3 3 3 3 3 3 3 3 3 3 3 3 3 3 3 3 3 3 3 3 3 3 3 3 3 3 3 3 3 3 3 3 3 3 3 3 3 3 3 3 3 3
      3 3 3 3 3 3 3 3 3 3 3 3 3 3 3 3 3 3 3 3 3 3 3 3 3 3 3 3 3 3 3 3 3 3 3 3 3 3 3 3 3 3 3 3 3 3 3 3 3 3 3 3 3 3 3 3 3 3 3 3
      3 3 3 3 3 3 3 3 3 3 3 3 3 3 3 3 3 3 3 3 3 3 3 3 3 3 3 3 3 3 3 3 3 3 3 3 3 3 3 3 3 3 3 3 3 3 3 3 3 3 3 3 3 3 3 3 3 3 3 3
      3 3 3 3 3 3 3 3 3 3 3 3 3 3 3 3 3 3 3 3 3 3 3 3 3 3 3 3 3 3 3 3 3 3 3 3 3 3 3 3 3 3 3 3 3 3 3 3 3 3 3 3 3 3 3 3 3 3 3 3
      3 3 3 3 3 3 3 3 3 3 3 3 3 3 3 3 3 3 3 3 3 3 3 3 3 3 3 3 3 3 3 3 3 3 3 3 3 3 3 3 3 3 3 3 3 3 3 3 3 3 3 3 3 3 3 3 3 3 3 3
      3 3 3 3 3 3 3 3 3 3 3 3 3 3 3 3 3 3 3 3 3 3 3 3 3 3 3 3 3 3 3 3 3 3 3 3 3 3 3 3 3 3 3 3 3 3 3 3 3 3 3 3 3 3 3 3 3 3 3 3
      3 3 3 3 3 3 3 3 3 3 3 3 3 3 3 3 3 3 3 3 3 3 3 3 3 3 3 3 3 3 3 3 3 3 3 3 3 3 3 3 3 3 3 3 3 3 3 3 3 3 3 3 3 3 3 3 3 3 3 3
      3 3 3 3 3 3 3 3 3 3 3 3 3 3 3 3 3 3 3 3 3 3 3 3 3 3 3 3 3 3 3 3 3 3 3 3 3 3 3 3 3 3 3 3 3 3 3 3 3 3 3 3 3 3 3 3 3 3 3 3
      3 3 3 3 3 3 3 3 3 3 3 3 3 3 3 3 3 3 3 3 3 3 3 3 3 3 3 3 3 3 3 3 3 3 3 3 3 3 3 3 3 3 3 3 3 3 3 3 3 3 3 3 3 3 3 3 3 3 3 3
      3 3 3 3 3 3 3 3 3 3 3 3 3 3 3 3 3 3 3 3 3 3 3 3 3 3 3 3 3 3 3 3 3 3 3 3 3 3 3 3 3 3 3 3 3 3 3 3 3 3 3 3 3 3 3 3 3 3 3 3
      3 3 3 3 3 3 3 3 3 3 3 3 3 3 3 3 3 3 3 3 3 3 3 3 3 3 3 3 3 3 3 3 3 3 3 3 3 3 3 3 3 3 3 3 3 3 3 3 3 3 3 3 3 3 3 3 3 3 3 3
      3 3 3 3 3 3 3 3 3 3 3 3 3 3 3 3 3 3 3 3 3 3 3 3 3 3 3 3 3 3 3 3 3 3 3 3 3 3 3 3 3 3 3 3 3 3 3 3 3 3 3 3 3 3 3 3 3 3 3 3
      3 3 3 3 3 3 3 3 3 3 3 3 3 3 3 3 3 3 3 3 3 3 3 3 3 3 3 3 3 3 3 3 3 3 3 3 3 3 3 3 3 3 3 3 3 3 3 3 3 3 3 3 3 3 3 3 3 3 3 3
      3 3 3 3 3 3 3 3 3 3 3 3 3 3 3 3 3 3 3 3 3 3 3 3 3 3 3 3 3 3 3 3 3 3 3 3 3 3 3 3 3 3 3 3 3 3 3 3 3 3 3 3 3 3 3 3 3 3 3 3
      3 3 3 3 3 3 3 3 3 3 3 3 3 3 3 3 3 3 3 3 3 3 3 3 3 3 3 3 3 3 3 3 3 3 3 3 3 3 3 3 3 3 3 3 3 3 3 3 3 3 3 3 3 3 3 3 3 3 3 3
      3 3 3 3 3 3 3 3 3 3 3 3 3 3 3 3 3 3 3 3 3 3 3 3 3 3 3 3 3 3 3 3 3 3 3 3 3 3 3 3 3 3 3 3 3 3 3 3 3 3 3 3 3 3 3 3 3 3 3 3
      3 3 3 3 3 3 3 3 3 3 3 3 3 3 3 3 3 3 3 3 3 3 3 3 3 3 3 3 3 3 3 3 3 3 3 3 3 3 3 3 3 3 3 3 3 3 3 3 3 3 3 3 3 3 3 3 3 3 3 3
      3 3 3 3 3 3 3 3 3 3 3 3 3 3 3 3 3 3 3 3 3 3 3 3 3 3 3 3 3 3 3 3 3 3 3 3 3 3 3 3 3 3 3 3 3 3 3 3 3 3 3 3 3 3 3 3 3 3 3 3
      3 3 3 3 3 3 3 3 3 3 3 3 3 3 3 3 3 3 3 3 3 3 3 3 3 3 3 3 3 3 3 3 3 3 3 3 3 3 3 3 3 3 3 3 3 3 3 3 3 3 3 3 3 3 3 3 3 3 3 3
      3 3 3 3 3 3 3 3 3 3 3 3 3 3 3 3 3 3 3 3 3 3 3 3 3 3 3 3 3 3 3 3 3 3 3 3 3 3 3 3 3 3 3 3 3 3 3 3 3 3 3 3 3 3 3 3 3 3 3 3
      3 3 3 3 3 3 3 3 3 3 3 3 3 3 3 3 3 3 3 3 3 3 3 3 3 3 3 3 3 3 3 3 3 3 3 3 3 3 3 3 3 3 3 3 3 3 3 3 3 3 3 3 3 3 3 3 3 3 3 3
      3 3 3 3 3 3 3 3 3 3 3 3 3 3 3 3 3 3 3 3 3 3 3 3 3 3 3 3 3 3 3 3 3 3 3 3 3 3 3 3 3 3 3 3 3 3 3 3 3 3 3 3 3 3 3 3 3 3 3 3
      3 3 3 3 3 3 3 3 3 3 3 3 3 3 3 3 3 3 3 3 3 3 3 3 3 3 3 3 3 3 3 3 3 3 3 3 3 3 3 3 3 3 3 3 3 3 3 3 3 3 3 3 3 3 3 3 3 3 3 3
      3 3 3 3 3 3 3 3 3 3 3 3 3 3 3 3 3 3 3 3 3 3 3 3 3 3 3 3 3 3 3 3 3 3 3 3 3 3 3 3 3 3 3 3 3 3 3 3 3 3 3 3 3 3 3 3 3 3 3 3
      3 3 3 3 3 3 3 3 3 3 3 3 3 3 3 3 3 3 3 3 3 3 3 3 3 3 3 3 3 3 3 3 3 3 3 3 3 3 3 3 3 3 3 3 3 3 3 3 3 3 3 3 3 3 3 3 3 3 3 3
      3 3 3 3 3 3 3 3 3 3 3 3 3 3 3 3 3 3 3 3 3 3 3 3 3 3 3 3 3 3 3 3 3 3 3 3 3 3 3 3 3 3 3 3 3 3 3 3 3 3 3 3 3 3 3 3 3 3 3 3
      3 3 3 3 3 3 3 3 3 3 3 3 3 3 3 3 3 3 3 3 3 3 3 3 3 3 3 3 3 3 3 3 3 3 3 3 3 3 3 3 3 3 3 3 3 3 3 3 3 3 3 3 3 3 3 3 3 3 3 3
      3 3 3 3 3 3 3 3 3 3 3 3 3 3 3 3 3 3 3 3 3 3 3 3 3 3 3 3 3 3 3 3 3 3 3 3 3 3 3 3 3 3 3 3 3 3 3 3 3 3 3 3 3 3 3 3 3 3 3 3
      3 3 3 3 3 3 3 3 3 3 3 3 3 3 3 3 3 3 3 3 3 3 3 3 3 3 3 3 3 3 3 3 3 3 3 3 3 3 3 3 3 3 3 3 3 3 3 3 3 3 3 3 3 3 3 3 3 3 3 3
      3 3 3 3 3 3 3 3 3 3 3 3 3 3 3 3 3 3 3 3 3 3 3 3 3 3 3 3 3 3 3 3 3 3 3 3 3 3 3 3 3 3 3 3 3 3 3 3 3 3 3 3 3 3 3 3 3 3 3 3
      3 3 3 3 3 3 3 3 3 3 3 3 3 3 3 3 3 3 3 3 3 3 3 3 3 3 3 3 3 3 3 3 3 3 3 3 3 3 3 3 3 3 3 3 3 3 3 3 3 3 3 3 3 3 3 3 3 3 3 3
      3 3 3 3 3 3 3 3 3 3 3 3 3 3 3 3 3 3 3 3 3 3 3 3 3 3 3 3 3 3 3 3 3 3 3 3 3 3 3 3 3 3 3 3 3 3 3 3 3 3 3 3 3 3 3 3 3 3 3 3
      3 3 3 3 3 3 3 3 3 3 3 3 3 3 3 3 3 3 3 3 3 3 3 3 3 3 3 3 3 3 3 3 3 3 3 3 3 3 3 3 3 3 3 3 3 3 3 3 3 3 3 3 3 3 3 3 3 3 3 3
      3 3 3 3 3 3 3 3 3 3 3 3 3 3 3 3 3 3 3 3 3 3 3 3 3 3 3 3 3 3 3 3 3 3 3 3 3 3 3 3 3 3 3 3 3 3 3 3 3 3 3 3 3 3 3 3 3 3 3 3
      3 3 3 3 3 3 3 3 3 3 3 3 3 3 3 3 3 3 3 3 3 3 3 3 3 3 3 3 3 3 3 3 3 3 3 3 3 3 3 3 3 3 3 3 3 3 3 3 3 3 3 3 3 3 3 3 3 3 3 3
      3 3 3 3 3 3 3 3 3 3 3 3 3 3 3 3 3 3 3 3 3 3 3 3 3 3 3 3 3 3 3 3 3 3 3 3 3 3 3 3 3 3 3 3 3 3 3 3 3 3 3 3 3 3 3 3 3 3 3 3
      3 3 3 3 3 3 3 3 3 3 3 3 3 3 3 3 3 3 3 3 3 3 3 3 3 3 3 3 3 3 3 3 3 3 3 3 3 3 3 3 3 3 3 3 3 3 3 3 3 3 3 3 3 3 3 3 3 3 3 3
      3 3 3 3 3 3 3 3 3 3 3 3 3 3 3 3 3 3 3 3 3 3 3 3 3 3 3 3 3 3 3 3 3 3 3 3 3 3 3 3 3 3 3 3 3 3 3 3 3 3 3 3 3 3 3 3 3 3 3 3
      3 3 3 3 3 3 3 3 3 3 3 3 3 3 3 3 3 3 3 3 3 3 3 3 3 3 3 3 3 3 3 3 3 3 3 3 3 3 3 3 3 3 3 3 3 3 3
 END PROCESSING GRIDDATA

 PROCESSING VERTICES
   SUCCESSFULLY READ 5182 (X,Y) COORDINATES
   MINIMUM X COORDINATE =     0.00000000000000    
   MAXIMUM X COORDINATE =     9781.25000000000    
   MINIMUM Y COORDINATE =     0.00000000000000    
   MAXIMUM Y COORDINATE =     10000.0000000000    
 END PROCESSING VERTICES

 PROCESSING CELL2D
   SUCCESSFULLY READ 4307 CELL2D INFORMATION ENTRIES
   MINIMUM X CELL CENTER =     125.000000000000    
   MAXIMUM X CELL CENTER =     9765.62500000000    
   MINIMUM Y CELL CENTER =     15.6250000000000    
   MAXIMUM Y CELL CENTER =     9984.37500000000    
   MAXIMUM NUMBER OF CELL2D VERTICES IS 8 FOR CELL 608
 END PROCESSING VERTICES

 NPF -- NODE PROPERTY FLOW PACKAGE, VERSION 1, 3/30/2015 INPUT READ FROM UNIT 1007


 # File generated by Flopy version 3.3.3 on 04/14/2021 at 16:24:13.
 PROCESSING NPF OPTIONS
    VALUES SPECIFIED FOR K33 ARE ANISOTROPY RATIOS AND WILL BE MULTIPLIED BY K BEFORE BEING USED IN CALCULATIONS.
 END OF NPF OPTIONS

 WEL   -- WEL PACKAGE, VERSION 8, 2/22/2014 INPUT READ FROM UNIT 1017
 # File generated by Flopy version 3.3.3 on 04/14/2021 at 16:24:14.

 PROCESSING WEL OPTIONS
    AUXILIARY WEL VARIABLE: IFACE           
    WEL BOUNDARIES HAVE NAMES IN LAST COLUMN.
    AUTOMATIC FLOW REDUCTION OF WELLS IMPLEMENTED.
    AUTOMATIC FLOW REDUCTION FRACTION (  0.1000000    ).

 OPENED model.wel.obs
 FILE TYPE:OBS   UNIT 1021   STATUS:OLD                 
 FORMAT:FORMATTED              ACCESS:SEQUENTIAL          
 ACTION:READ                

 END OF WEL OPTIONS

 PROCESSING WEL DIMENSIONS
    MAXBOUND =      13
 END OF WEL DIMENSIONS

 DRN   -- DRN PACKAGE, VERSION 8, 2/22/2014 INPUT READ FROM UNIT 1016
 # File generated by Flopy version 3.3.3 on 04/14/2021 at 16:24:14.

 PROCESSING DRN OPTIONS
    DRN BOUNDARIES HAVE NAMES IN LAST COLUMN.

 OPENED model.surf.drn.obs
 FILE TYPE:OBS   UNIT 1022   STATUS:OLD                 
 FORMAT:FORMATTED              ACCESS:SEQUENTIAL          
 ACTION:READ                

 END OF DRN OPTIONS

 PROCESSING DRN DIMENSIONS
    MAXBOUND =    4307
 END OF DRN DIMENSIONS

 RIV   -- RIV PACKAGE, VERSION 8, 2/22/2014 INPUT READ FROM UNIT 1015
 # File generated by Flopy version 3.3.3 on 04/14/2021 at 16:24:14.

 PROCESSING RIV OPTIONS
    RIV BOUNDARIES HAVE NAMES IN LAST COLUMN.

 OPENED model.riv.obs
 FILE TYPE:OBS   UNIT 1023   STATUS:OLD                 
 FORMAT:FORMATTED              ACCESS:SEQUENTIAL          
 ACTION:READ                

 END OF RIV OPTIONS

 PROCESSING RIV DIMENSIONS
    MAXBOUND =     672
 END OF RIV DIMENSIONS

 GHB   -- GHB PACKAGE, VERSION 8, 2/22/2014 INPUT READ FROM UNIT 1014
 # File generated by Flopy version 3.3.3 on 04/14/2021 at 16:24:14.

 PROCESSING GHB OPTIONS
    GHB BOUNDARIES HAVE NAMES IN LAST COLUMN.

 OPENED model.ghb.obs
 FILE TYPE:OBS   UNIT 1024   STATUS:OLD                 
 FORMAT:FORMATTED              ACCESS:SEQUENTIAL          
 ACTION:READ                

 END OF GHB OPTIONS

 PROCESSING GHB DIMENSIONS
    MAXBOUND =      80
 END OF GHB DIMENSIONS

 RCH   -- RCH PACKAGE, VERSION 8, 2/22/2014 INPUT READ FROM UNIT 1009
 # File generated by Flopy version 3.3.3 on 04/14/2021 at 16:24:13.

 PROCESSING RCH OPTIONS
    AUXILIARY RCH VARIABLE: MULTIPLIER      
    AUXILIARY MULTIPLIER NAME: MULTIPLIER      
    RCH BOUNDARIES HAVE NAMES IN LAST COLUMN.

 OPENED model.lu1.rch.obs
 FILE TYPE:OBS   UNIT 1025   STATUS:OLD                 
 FORMAT:FORMATTED              ACCESS:SEQUENTIAL          
 ACTION:READ                

 END OF RCH OPTIONS

 PROCESSING RCH DIMENSIONS
    MAXBOUND =    4307
 END OF RCH DIMENSIONS

 RCH   -- RCH PACKAGE, VERSION 8, 2/22/2014 INPUT READ FROM UNIT 1010
 # File generated by Flopy version 3.3.3 on 04/14/2021 at 16:24:13.

 PROCESSING RCH OPTIONS
    AUXILIARY RCH VARIABLE: MULTIPLIER      
    AUXILIARY MULTIPLIER NAME: MULTIPLIER      
    RCH BOUNDARIES HAVE NAMES IN LAST COLUMN.
 END OF RCH OPTIONS

 PROCESSING RCH DIMENSIONS
    MAXBOUND =      70
 END OF RCH DIMENSIONS

 RCH   -- RCH PACKAGE, VERSION 8, 2/22/2014 INPUT READ FROM UNIT 1011
 # File generated by Flopy version 3.3.3 on 04/14/2021 at 16:24:13.

 PROCESSING RCH OPTIONS
    AUXILIARY RCH VARIABLE: MULTIPLIER      
    AUXILIARY MULTIPLIER NAME: MULTIPLIER      
    RCH BOUNDARIES HAVE NAMES IN LAST COLUMN.
 END OF RCH OPTIONS

 PROCESSING RCH DIMENSIONS
    MAXBOUND =      65
 END OF RCH DIMENSIONS

 EVT   -- EVT PACKAGE, VERSION 8, 2/22/2014 INPUT READ FROM UNIT 1012
 # File generated by Flopy version 3.3.3 on 04/14/2021 at 16:24:13.

 PROCESSING EVT OPTIONS
    AUXILIARY EVT VARIABLE: MULTIPLIER      
    AUXILIARY MULTIPLIER NAME: MULTIPLIER      
    EVT BOUNDARIES HAVE NAMES IN LAST COLUMN.

 OPENED model.evt.obs
 FILE TYPE:OBS   UNIT 1026   STATUS:OLD                 
 FORMAT:FORMATTED              ACCESS:SEQUENTIAL          
 ACTION:READ                

 END OF EVT OPTIONS

 PROCESSING EVT DIMENSIONS
    MAXBOUND =    4307
    NSEG = 1
 END OF EVT DIMENSIONS

 CHD   -- CHD PACKAGE, VERSION 8, 2/22/2014 INPUT READ FROM UNIT 1013
 # File generated by Flopy version 3.3.3 on 04/14/2021 at 16:24:14.

 PROCESSING CHD OPTIONS
    CHD BOUNDARIES HAVE NAMES IN LAST COLUMN.

 OPENED model.chd.obs
 FILE TYPE:OBS   UNIT 1027   STATUS:OLD                 
 FORMAT:FORMATTED              ACCESS:SEQUENTIAL          
 ACTION:READ                

 END OF CHD OPTIONS

 PROCESSING CHD DIMENSIONS
    MAXBOUND =     396
 END OF CHD DIMENSIONS

 IC -- INITIAL CONDITIONS PACKAGE, VERSION 8, 3/28/2015 INPUT READ FROM UNIT 1008
 # File generated by Flopy version 3.3.3 on 04/14/2021 at 16:24:13.
 PROCESSING GRIDDATA
 END PROCESSING GRIDDATA
 PROCESSING GRIDDATA

 OPENED model.npf_icelltype_layer1.txt
 FILE TYPE:OPEN/CLOSE   UNIT 1028   STATUS:OLD                 
 FORMAT:FORMATTED              ACCESS:SEQUENTIAL          
 ACTION:READ                


 OPENED model.npf_icelltype_layer2.txt
 FILE TYPE:OPEN/CLOSE   UNIT 1029   STATUS:OLD                 
 FORMAT:FORMATTED              ACCESS:SEQUENTIAL          
 ACTION:READ                


 OPENED model.npf_icelltype_layer3.txt
 FILE TYPE:OPEN/CLOSE   UNIT 1030   STATUS:OLD                 
 FORMAT:FORMATTED              ACCESS:SEQUENTIAL          
 ACTION:READ                


 OPENED model.npf_k_layer1.txt
 FILE TYPE:OPEN/CLOSE   UNIT 1031   STATUS:OLD                 
 FORMAT:FORMATTED              ACCESS:SEQUENTIAL          
 ACTION:READ                


 OPENED model.npf_k_layer2.txt
 FILE TYPE:OPEN/CLOSE   UNIT 1032   STATUS:OLD                 
 FORMAT:FORMATTED              ACCESS:SEQUENTIAL          
 ACTION:READ                


 OPENED model.npf_k_layer3.txt
 FILE TYPE:OPEN/CLOSE   UNIT 1033   STATUS:OLD                 
 FORMAT:FORMATTED              ACCESS:SEQUENTIAL          
 ACTION:READ                


 OPENED model.npf_k33_layer1.txt
 FILE TYPE:OPEN/CLOSE   UNIT 1034   STATUS:OLD                 
 FORMAT:FORMATTED              ACCESS:SEQUENTIAL          
 ACTION:READ                


 OPENED model.npf_k33_layer2.txt
 FILE TYPE:OPEN/CLOSE   UNIT 1035   STATUS:OLD                 
 FORMAT:FORMATTED              ACCESS:SEQUENTIAL          
 ACTION:READ                


 OPENED model.npf_k33_layer3.txt
 FILE TYPE:OPEN/CLOSE   UNIT 1036   STATUS:OLD                 
 FORMAT:FORMATTED              ACCESS:SEQUENTIAL          
 ACTION:READ                

 K22 not provided.  Assuming K22 = K.
 END PROCESSING GRIDDATA

 STO -- STORAGE PACKAGE, VERSION 1, 5/19/2014 INPUT READ FROM UNIT 1006


 # File generated by Flopy version 3.3.3 on 04/14/2021 at 16:24:13.
 PROCESSING STORAGE OPTIONS
 END OF STORAGE OPTIONS
 PROCESSING GRIDDATA

                 ICONVERT = 1

         SPECIFIC STORAGE =  0.1000000E-04

           SPECIFIC YIELD =  0.1500000    
 END PROCESSING GRIDDATA

The observation utility is active for "MODEL"
 # File generated by Flopy version 3.3.3 on 04/14/2021 at 16:24:14.

Processing observation options:

Text output number of digits of precision set to: 10

    BINARY GRID INFORMATION WILL BE WRITTEN TO:
      UNIT NUMBER: 1038
      FILE NAME: c:\_data\work\gmdsi\tutorial\gmdsi_calib\_tutorial\runmodel\model\model.disv.grb

 OPENED c:\_data\work\gmdsi\tutorial\gmdsi_calib\_tutorial\runmodel\model\model.disv.grb
 FILE TYPE:DATA(BINARY)   UNIT 1038   STATUS:REPLACE             
 FORMAT:UNFORMATTED            ACCESS:STREAM              
 ACTION:READWRITE           

      THE LAST TIME STEP WILL BE PRINTED
      THE LAST TIME STEP WILL BE PRINTED
 # File generated by Flopy version 3.3.3 on 04/14/2021 at 16:24:14.

 PROCESSING OC OPTIONS

    BUDGET INFORMATION WILL BE WRITTEN TO:
      UNIT NUMBER: 1039
      FILE NAME: model.cbb

 OPENED model.cbb
 FILE TYPE:DATA(BINARY)   UNIT 1039   STATUS:REPLACE             
 FORMAT:UNFORMATTED            ACCESS:STREAM              
 ACTION:READWRITE           

    HEAD INFORMATION WILL BE WRITTEN TO:
      UNIT NUMBER: 1040
      FILE NAME: model.hds

 OPENED model.hds
 FILE TYPE:DATA(BINARY)   UNIT 1040   STATUS:REPLACE             
 FORMAT:UNFORMATTED            ACCESS:STREAM              
 ACTION:READWRITE           

 END OF OC OPTIONS

The observation utility is active for "WEL_0"
 # File generated by Flopy version 3.3.3 on 04/14/2021 at 16:24:14.

Processing observation options:

Text output number of digits of precision set to:  9


The observation utility is active for "DRN2"
 # File generated by Flopy version 3.3.3 on 04/14/2021 at 16:24:14.

Processing observation options:

Text output number of digits of precision set to:  9


The observation utility is active for "RIV_0"
 # File generated by Flopy version 3.3.3 on 04/14/2021 at 16:24:14.

Processing observation options:

Text output number of digits of precision set to:  9


The observation utility is active for "GHB_0"
 # File generated by Flopy version 3.3.3 on 04/14/2021 at 16:24:14.

Processing observation options:

Text output number of digits of precision set to:  9


The observation utility is active for "RCH1"
 # File generated by Flopy version 3.3.3 on 04/14/2021 at 16:24:14.

Processing observation options:

Text output number of digits of precision set to:  9


The observation utility is active for "EVT"
 # File generated by Flopy version 3.3.3 on 04/14/2021 at 16:24:14.

Processing observation options:

Text output number of digits of precision set to:  9


The observation utility is active for "CHD_0"
 # File generated by Flopy version 3.3.3 on 04/14/2021 at 16:24:14.

Processing observation options:

Text output number of digits of precision set to:  9


start timestep kper="1" kstp="1" mode="normal"


 BEGIN READING OUTPUT CONTROL FOR STRESS PERIOD 1
      THE LAST TIME STEP WILL BE SAVED
      THE LAST TIME STEP WILL BE SAVED
      THE LAST TIME STEP WILL BE PRINTED
      THE LAST TIME STEP WILL BE PRINTED

 END READING OUTPUT CONTROL FOR STRESS PERIOD 1


 PROCESSING STORAGE PERIOD DATA
 END PROCESSING STORAGE PERIOD DATA


 STRESS PERIOD 1 IS STEADY-STATE


 OPENED model.wel_stress_period_data_1.txt
 FILE TYPE:OPEN/CLOSE   UNIT 1048   STATUS:OLD                 
 FORMAT:FORMATTED              ACCESS:SEQUENTIAL          
 ACTION:READ                


 OPENED model.riv_stress_period_data_1.txt
 FILE TYPE:OPEN/CLOSE   UNIT 1049   STATUS:OLD                 
 FORMAT:FORMATTED              ACCESS:SEQUENTIAL          
 ACTION:READ                


 OPENED model.ghb_stress_period_data_1.txt
 FILE TYPE:OPEN/CLOSE   UNIT 1050   STATUS:OLD                 
 FORMAT:FORMATTED              ACCESS:SEQUENTIAL          
 ACTION:READ                


 OPENING FILE ON UNIT 99:
 model.lu1.rch_stress_period_data_1.txt
1
  HEAD IN LAYER   1 AT END OF TIME STEP   1 IN STRESS PERIOD    1
  ---------------------------------------------------------------------------

                1               2               3               4               5               6               7               8               9              10
               11              12              13              14              15              16              17              18              19              20
               21              22              23              24              25              26              27              28              29              30
               31              32              33              34              35              36              37              38              39              40
               41              42              43              44              45              46              47              48              49              50
               51              52              53              54              55              56              57              58              59              60
               61              62              63              64              65              66              67              68              69              70
               71              72              73              74              75              76              77              78              79              80
               81              82              83              84              85              86              87              88              89              90
               91              92              93              94              95              96              97              98              99             100
              101             102             103             104             105             106             107             108             109             110
              111             112             113             114             115             116             117             118             119             120
              121             122             123             124             125             126             127             128             129             130
              131             132             133             134             135             136             137             138             139             140
              141             142             143             144             145             146             147             148             149             150
              151             152             153             154             155             156             157             158             159             160
              161             162             163             164             165             166             167             168             169             170
              171             172             173             174             175             176             177             178             179             180
              181             182             183             184             185             186             187             188             189             190
              191             192             193             194             195             196             197             198             199             200
              201             202             203             204             205             206             207             208             209             210
              211             212             213             214             215             216             217             218             219             220
              221             222             223             224             225             226             227             228             229             230
              231             232             233             234             235             236             237             238             239             240
              241             242             243             244             245             246             247             248             249             250
              251             252             253             254             255             256             257             258             259             260
              261             262             263             264             265             266             267             268             269             270
              271             272             273             274             275             276             277             278             279             280
              281             282             283             284             285             286             287             288             289             290
              291             292             293             294             295             296             297             298             299             300
              301             302             303             304             305             306             307             308             309             310
              311             312             313             314             315             316             317             318             319             320
              321             322             323             324             325             326             327             328             329             330
              331             332             333             334             335             336             337             338             339             340
              341             342             343             344             345             346             347             348             349             350
              351             352             353             354             355             356             357             358             359             360
              361             362             363             364             365             366             367             368             369             370
              371             372             373             374             375             376             377             378             379             380
              381             382             383             384             385             386             387             388             389             390
              391             392             393             394             395             396             397             398             399             400
              401             402             403             404             405             406             407             408             409             410
              411             412             413             414             415             416             417             418             419             420
              421             422             423             424             425             426             427             428             429             430
              431             432             433             434             435             436             437             438             439             440
              441             442             443             444             445             446             447             448             449             450
              451             452             453             454             455             456             457             458             459             460
              461             462             463             464             465             466             467             468             469             470
              471             472             473             474             475             476             477             478             479             480
              481             482             483             484             485             486             487             488             489             490
              491             492             493             494             495             496             497             498             499             500
              501             502             503             504             505             506             507             508             509             510
              511             512             513             514             515             516             517             518             519             520
              521             522             523             524             525             526             527             528             529             530
              531             532             533             534             535             536             537             538             539             540
              541             542             543             544             545             546             547             548             549             550
              551             552             553             554             555             556             557             558             559             560
              561             562             563             564             565             566             567             568             569             570
              571             572             573             574             575             576             577             578             579             580
              581             582             583             584             585             586             587             588             589             590
              591             592             593             594             595             596             597             598             599             600
              601             602             603             604             605             606             607             608             609             610
              611             612             613             614             615             616             617             618             619             620
              621             622             623             624             625             626             627             628             629             630
              631             632             633             634             635             636             637             638             639             640
              641             642             643             644             645             646             647             648             649             650
              651             652             653             654             655             656             657             658             659             660
              661             662             663             664             665             666             667             668             669             670
              671             672             673             674             675             676             677             678             679             680
              681             682             683             684             685             686             687             688             689             690
              691             692             693             694             695             696             697             698             699             700
              701             702             703             704             705             706             707             708             709             710
              711             712             713             714             715             716             717             718             719             720
              721             722             723             724             725             726             727             728             729             730
              731             732             733             734             735             736             737             738             739             740
              741             742             743             744             745             746             747             748             749             750
              751             752             753             754             755             756             757             758             759             760
              761             762             763             764             765             766             767             768             769             770
              771             772             773             774             775             776             777             778             779             780
              781             782             783             784             785             786             787             788             789             790
              791             792             793             794             795             796             797             798             799             800
              801             802             803             804             805             806             807             808             809             810
              811             812             813             814             815             816             817             818             819             820
              821             822             823             824             825             826             827             828             829             830
              831             832             833             834             835             836             837             838             839             840
              841             842             843             844             845             846             847             848             849             850
              851             852             853             854             855             856             857             858             859             860
              861             862             863             864             865             866             867             868             869             870
              871             872             873             874             875             876             877             878             879             880
              881             882             883             884             885             886             887             888             889             890
              891             892             893             894             895             896             897             898             899             900
              901             902             903             904             905             906             907             908             909             910
              911             912             913             914             915             916             917             918             919             920
              921             922             923             924             925             926             927             928             929             930
              931             932             933             934             935             936             937             938             939             940
              941             942             943             944             945             946             947             948             949             950
              951             952             953             954             955             956             957             958             959             960
              961             962             963             964             965             966             967             968             969             970
              971             972             973             974             975             976             977             978             979             980
              981             982             983             984             985             986             987             988             989             990
              991             992             993             994             995             996             997             998             999            1000
             1001            1002            1003            1004            1005            1006            1007            1008            1009            1010
             1011            1012            1013            1014            1015            1016            1017            1018            1019            1020
             1021            1022            1023            1024            1025            1026            1027            1028            1029            1030
             1031            1032            1033            1034            1035            1036            1037            1038            1039            1040
             1041            1042            1043            1044            1045            1046            1047            1048            1049            1050
             1051            1052            1053            1054            1055            1056            1057            1058            1059            1060
             1061            1062            1063            1064            1065            1066            1067            1068            1069            1070
             1071            1072            1073            1074            1075            1076            1077            1078            1079            1080
             1081            1082            1083            1084            1085            1086            1087            1088            1089            1090
             1091            1092            1093            1094            1095            1096            1097            1098            1099            1100
             1101            1102            1103            1104            1105            1106            1107            1108            1109            1110
             1111            1112            1113            1114            1115            1116            1117            1118            1119            1120
             1121            1122            1123            1124            1125            1126            1127            1128            1129            1130
             1131            1132            1133            1134            1135            1136            1137            1138            1139            1140
             1141            1142            1143            1144            1145            1146            1147            1148            1149            1150
             1151            1152            1153            1154            1155            1156            1157            1158            1159            1160
             1161            1162            1163            1164            1165            1166            1167            1168            1169            1170
             1171            1172            1173            1174            1175            1176            1177            1178            1179            1180
             1181            1182            1183            1184            1185            1186            1187            1188            1189            1190
             1191            1192            1193            1194            1195            1196            1197            1198            1199            1200
             1201            1202            1203            1204            1205            1206            1207            1208            1209            1210
             1211            1212            1213            1214            1215            1216            1217            1218            1219            1220
             1221            1222            1223            1224            1225            1226            1227            1228            1229            1230
             1231            1232            1233            1234            1235            1236            1237            1238            1239            1240
             1241            1242            1243            1244            1245            1246            1247            1248            1249            1250
             1251            1252            1253            1254            1255            1256            1257            1258            1259            1260
             1261            1262            1263            1264            1265            1266            1267            1268            1269            1270
             1271            1272            1273            1274            1275            1276            1277            1278            1279            1280
             1281            1282            1283            1284            1285            1286            1287            1288            1289            1290
             1291            1292            1293            1294            1295            1296            1297            1298            1299            1300
             1301            1302            1303            1304            1305            1306            1307            1308            1309            1310
             1311            1312            1313            1314            1315            1316            1317            1318            1319            1320
             1321            1322            1323            1324            1325            1326            1327            1328            1329            1330
             1331            1332            1333            1334            1335            1336            1337            1338            1339            1340
             1341            1342            1343            1344            1345            1346            1347            1348            1349            1350
             1351            1352            1353            1354            1355            1356            1357            1358            1359            1360
             1361            1362            1363            1364            1365            1366            1367            1368            1369            1370
             1371            1372            1373            1374            1375            1376            1377            1378            1379            1380
             1381            1382            1383            1384            1385            1386            1387            1388            1389            1390
             1391            1392            1393            1394            1395            1396            1397            1398            1399            1400
             1401            1402            1403            1404            1405            1406            1407            1408            1409            1410
             1411            1412            1413            1414            1415            1416            1417            1418            1419            1420
             1421            1422            1423            1424            1425            1426            1427            1428            1429            1430
             1431            1432            1433            1434            1435            1436            1437            1438            1439            1440
             1441            1442            1443            1444            1445            1446            1447            1448            1449            1450
             1451            1452            1453            1454            1455            1456            1457            1458            1459            1460
             1461            1462            1463            1464            1465            1466            1467            1468            1469            1470
             1471            1472            1473            1474            1475            1476            1477            1478            1479            1480
             1481            1482            1483            1484            1485            1486            1487            1488            1489            1490
             1491            1492            1493            1494            1495            1496            1497            1498            1499            1500
             1501            1502            1503            1504            1505            1506            1507            1508            1509            1510
             1511            1512            1513            1514            1515            1516            1517            1518            1519            1520
             1521            1522            1523            1524            1525            1526            1527            1528            1529            1530
             1531            1532            1533            1534            1535            1536            1537            1538            1539            1540
             1541            1542            1543            1544            1545            1546            1547            1548            1549            1550
             1551            1552            1553            1554            1555            1556            1557            1558            1559            1560
             1561            1562            1563            1564            1565            1566            1567            1568            1569            1570
             1571            1572            1573            1574            1575            1576            1577            1578            1579            1580
             1581            1582            1583            1584            1585            1586            1587            1588            1589            1590
             1591            1592            1593            1594            1595            1596            1597            1598            1599            1600
             1601            1602            1603            1604            1605            1606            1607            1608            1609            1610
             1611            1612            1613            1614            1615            1616            1617            1618            1619            1620
             1621            1622            1623            1624            1625            1626            1627            1628            1629            1630
             1631            1632            1633            1634            1635            1636            1637            1638            1639            1640
             1641            1642            1643            1644            1645            1646            1647            1648            1649            1650
             1651            1652            1653            1654            1655            1656            1657            1658            1659            1660
             1661            1662            1663            1664            1665            1666            1667            1668            1669            1670
             1671            1672            1673            1674            1675            1676            1677            1678            1679            1680
             1681            1682            1683            1684            1685            1686            1687            1688            1689            1690
             1691            1692            1693            1694            1695            1696            1697            1698            1699            1700
             1701            1702            1703            1704            1705            1706            1707            1708            1709            1710
             1711            1712            1713            1714            1715            1716            1717            1718            1719            1720
             1721            1722            1723            1724            1725            1726            1727            1728            1729            1730
             1731            1732            1733            1734            1735            1736            1737            1738            1739            1740
             1741            1742            1743            1744            1745            1746            1747            1748            1749            1750
             1751            1752            1753            1754            1755            1756            1757            1758            1759            1760
             1761            1762            1763            1764            1765            1766            1767            1768            1769            1770
             1771            1772            1773            1774            1775            1776            1777            1778            1779            1780
             1781            1782            1783            1784            1785            1786            1787            1788            1789            1790
             1791            1792            1793            1794            1795            1796            1797            1798            1799            1800
             1801            1802            1803            1804            1805            1806            1807            1808            1809            1810
             1811            1812            1813            1814            1815            1816            1817            1818            1819            1820
             1821            1822            1823            1824            1825            1826            1827            1828            1829            1830
             1831            1832            1833            1834            1835            1836            1837            1838            1839            1840
             1841            1842            1843            1844            1845            1846            1847            1848            1849            1850
             1851            1852            1853            1854            1855            1856            1857            1858            1859            1860
             1861            1862            1863            1864            1865            1866            1867            1868            1869            1870
             1871            1872            1873            1874            1875            1876            1877            1878            1879            1880
             1881            1882            1883            1884            1885            1886            1887            1888            1889            1890
             1891            1892            1893            1894            1895            1896            1897            1898            1899            1900
             1901            1902            1903            1904            1905            1906            1907            1908            1909            1910
             1911            1912            1913            1914            1915            1916            1917            1918            1919            1920
             1921            1922            1923            1924            1925            1926            1927            1928            1929            1930
             1931            1932            1933            1934            1935            1936            1937            1938            1939            1940
             1941            1942            1943            1944            1945            1946            1947            1948            1949            1950
             1951            1952            1953            1954            1955            1956            1957            1958            1959            1960
             1961            1962            1963            1964            1965            1966            1967            1968            1969            1970
             1971            1972            1973            1974            1975            1976            1977            1978            1979            1980
             1981            1982            1983            1984            1985            1986            1987            1988            1989            1990
             1991            1992            1993            1994            1995            1996            1997            1998            1999            2000
             2001            2002            2003            2004            2005            2006            2007            2008            2009            2010
             2011            2012            2013            2014            2015            2016            2017            2018            2019            2020
             2021            2022            2023            2024            2025            2026            2027            2028            2029            2030
             2031            2032            2033            2034            2035            2036            2037            2038            2039            2040
             2041            2042            2043            2044            2045            2046            2047            2048            2049            2050
             2051            2052            2053            2054            2055            2056            2057            2058            2059            2060
             2061            2062            2063            2064            2065            2066            2067            2068            2069            2070
             2071            2072            2073            2074            2075            2076            2077            2078            2079            2080
             2081            2082            2083            2084            2085            2086            2087            2088            2089            2090
             2091            2092            2093            2094            2095            2096            2097            2098            2099            2100
             2101            2102            2103            2104            2105            2106            2107            2108            2109            2110
             2111            2112            2113            2114            2115            2116            2117            2118            2119            2120
             2121            2122            2123            2124            2125            2126            2127            2128            2129            2130
             2131            2132            2133            2134            2135            2136            2137            2138            2139            2140
             2141            2142            2143            2144            2145            2146            2147            2148            2149            2150
             2151            2152            2153            2154            2155            2156            2157            2158            2159            2160
             2161            2162            2163            2164            2165            2166            2167            2168            2169            2170
             2171            2172            2173            2174            2175            2176            2177            2178            2179            2180
             2181            2182            2183            2184            2185            2186            2187            2188            2189            2190
             2191            2192            2193            2194            2195            2196            2197            2198            2199            2200
             2201            2202            2203            2204            2205            2206            2207            2208            2209            2210
             2211            2212            2213            2214            2215            2216            2217            2218            2219            2220
[...]
          93.6411         93.2580         92.7989         92.4488         92.8284         92.5347         92.1337         91.8593         92.2099         91.9778    
          91.5935         91.3545         91.6972         91.4920         91.1228         90.9103         91.2401         91.0533         90.6856         90.4796    
          90.8069         90.6162         90.1996         89.7691         89.3520         88.9474         88.5738         88.2546         87.9722         87.8424    
          88.1033         88.0047         87.7217         87.6129         87.8806         87.7844         87.5088         87.4172         87.6721         87.5884    
          87.3319         87.2627         87.4893         87.4089         87.2159         87.0493         86.8612         86.6349         86.5387         86.7788    
          86.6979         86.4737         86.2831         86.0819         85.8685         85.6574         85.4460         85.2398         85.0449         84.8585    
          84.6783         84.5308         84.4701         84.4456         84.4905         84.4674         84.5730         84.5143         84.4887         84.5325    
          84.5081         84.4331         84.4429         84.4554         84.4645         84.4764         84.4849         84.4960         84.5041         100.076    
          98.0264         96.0726         94.5568         93.5064         92.7704         92.2224         91.7549         91.3176         90.8829         90.4396    
          90.0197         89.6205         89.2426         88.8951         88.5860         88.3180         88.0958         87.9005         87.7245         87.5620    
          87.3963         87.2172         87.0256         86.8322         86.6269         86.4044         86.1677         85.9272         85.6860         85.4488    
          85.2205         85.0008         84.7884         84.6232         84.5561         84.5275         84.5724         84.5447         84.6573         84.5913    
          84.5614         84.6060         84.5770         84.5148         84.5224         84.5322         84.5393         84.5485         84.5551         84.5633    
          84.5685         100.305         98.1469         96.1665         94.6544         93.6164         92.9081         92.3741         91.9102         91.4621    
          91.0100         90.5541         90.1565         89.8005         89.4679         89.1600         88.8836         88.6397         88.4298         88.2452    
          88.0755         87.9109         87.7413         87.5605         87.3722         87.1678         86.9436         86.6983         86.4367         86.1679    
          85.8979         85.6305         85.3702         85.1182         84.8772         84.6981         84.6260         84.5972         84.5861         84.6073    
          84.5991         84.6419         84.6182         84.6101         84.6262         84.6193         84.7259         84.6591         84.6357         84.6281    
          84.6425         84.6355         84.6722         84.6502         84.6426         84.6564         84.6487         84.5742         100.409         98.2765    
          96.3093         94.7885         93.7479         93.0418         92.4961         92.0090         91.5276         91.0335         90.5188         90.1760    
          89.8911         89.6229         89.3675         89.1327         88.9204         88.7310         88.5599         88.3995         88.2395         88.0711    
          87.8907         87.6959         87.4760         87.2306         86.9619         86.6755         86.3786         86.0810         85.7847         85.4931    
          85.2086         84.9814         84.8740         85.0134         84.8889         84.7566         84.6893         84.6655         84.6537         84.6771    
          84.7033         84.6872         84.6932         84.7950         84.7541         84.8079         84.7637         84.7209         84.7085         84.7280    
          84.7147         84.6993         84.7034         84.7364         84.7258         84.7430         84.7334         100.466         98.4043         96.4575    
          94.9533         93.9129         93.1782         92.5889         92.0562         91.5276         90.9841         90.3335         90.1340         89.9283    
          89.7219         89.5211         89.3307         89.1537         88.9901         88.8363         88.6872         88.5349         88.3703         88.1900    
          87.9852         87.7498         87.4840         87.1932         86.8830         86.5598         86.2334         85.9090         85.5889         85.2769    
          85.0441         84.9096         85.0610         84.9276         84.8209         84.7767         84.8313         84.7909         84.7515         84.7387    
          84.7632         84.7731         84.7787         84.8434         84.8093         84.7962         84.8181         84.8067         84.8572         84.8282    
          84.8135         84.8412         84.7836         100.474         98.5344         96.6582         95.1905         94.1236         93.3198         92.6596    
          92.0572         91.4384         91.0150         90.5597         90.2409         89.9574         89.7783         89.6284         89.4820         89.3399    
          89.2034         89.0698         88.9342         88.7911         88.6313         88.4486         88.2358         87.9874         87.7032         87.3912    
          87.0572         86.7080         86.3534         86.0010         85.6543         85.3187         85.0779         84.9679         84.9193         84.9812    
          84.9298         85.0938         84.9945         84.9519         84.9349         84.9613         84.9434         85.0094         84.9729         84.9580    
          84.9827         84.9660         84.8787         84.8633         84.8871         84.8707         84.8512         84.8570         84.8968         84.8832    
          84.9051         84.8901         84.9198         84.9275         100.437         98.6847         96.9279         95.4625         94.3537         93.4860    
          92.7494         92.0177         91.0301         91.0138         90.6958         90.2861         89.8306         89.7644         89.6925         89.5911    
          89.4816         89.3712         89.2585         89.1385         89.0048         88.8497         88.6649         88.4460         88.1881         87.8893    
          87.5567         87.1986         86.8233         86.4395         86.0579         85.6868         85.4062         85.2665         85.4244         85.2708    
          85.1399         85.0837         85.1541         85.0953         85.0355         85.0165         85.0458         85.0260         84.9998         85.0086    
          85.0573         85.0415         85.0670         85.0499         85.1655         85.1192         85.1005         85.1291         85.1096         85.1800    
          85.1412         85.1252         85.1513         85.1337         85.0835         85.0921         100.457         98.8397         97.1890         95.7373    
          94.5825         93.6689         92.9060         92.2090         91.5955         91.2524         90.8495         90.2826         89.2319         89.7052    
          89.7449         89.6696         89.5842         89.4974         89.4043         89.2997         89.1765         89.0270         88.8427         88.6190    
          88.3523         88.0409         87.6891         87.3063         86.9040         86.4915         86.0823         85.6996         85.4337         85.3114    
          85.2555         85.3244         85.2659         85.4463         85.3374         85.2901         85.2711         85.3004         85.2804         85.3527    
          85.3129         85.2965         85.3233         85.3052         85.2059         85.1861         85.2161         85.1955         85.1686         85.1774    
          85.2274         85.2112         85.2370         85.2195         85.2539         85.2626         100.520         98.9815         97.4165         96.0130    
          94.8405         93.8740         93.0546         92.3422         91.8576         91.4735         91.0641         90.5958         90.1101         89.9903    
          89.8614         89.7205         89.6487         89.5863         89.5122         89.4219         89.3094         89.1669         88.9854         88.7590    
          88.4843         88.1599         87.7899         87.3829         86.9501         86.5070         86.0777         85.7752         85.6258         85.7878    
          85.6221         85.4914         85.4315         85.5039         85.4412         85.3799         85.3593         85.3904         85.3690         85.3413    
          85.3504         85.4019         85.3851         85.4119         85.3937         85.5124         85.4567         85.5214         85.4784         85.4618    
          85.4887         85.4743         85.4296         85.4387         85.4454         100.555         99.1254         97.6521         96.2998         95.1196    
          94.1107         93.2174         92.3918         92.0320         91.6651         91.2506         90.8136         90.4598         90.2047         89.9439    
          89.6697         89.6662         89.6442         89.5884         89.5106         89.4088         89.2740         89.0967         88.8694         88.5880    
          88.2511         87.8626         87.4302         86.9676         86.5026         86.0723         85.7918         85.6299         85.7945         85.6689    
          85.6140         85.6804         85.6215         85.5352         85.5000         85.4822         85.5152         85.5496         85.5268         85.5332    
          85.5705         85.5542         85.5796         85.5660         85.5387         85.5876         85.5743         85.5950         85.5795         100.584    
          99.2569         97.8773         96.5868         95.4312         94.4227         93.5518         92.8177         92.3282         91.8772         91.3870    
          90.8662         90.6222         90.3645         89.9977         89.3206         89.6611         89.6940         89.6402         89.5696         89.4792    
          89.3539         89.1816         88.9545         88.6670         88.3180         87.9110         87.4538         86.9650         86.4911         86.0694    
          85.8021         85.6903         85.6353         85.6986         85.6551         85.6384         85.6632         85.6453         85.8130         85.7106    
          85.6734         85.6591         85.6808         85.6689         85.7210         85.6884         85.6768         85.6941         85.6833         85.6100    
          85.6184         85.6256         85.6302         100.612         99.3728         98.0856         96.8566         95.7380         94.7521         93.9005    
          93.1902         92.6246         92.0936         91.4862         90.5741         90.7291         90.5685         90.2922         89.9753         89.8914    
          89.7845         89.6636         89.5963         89.5234         89.4119         89.2462         89.0186         88.7251         88.3648         87.9407    
          87.4620         86.9587         86.4808         86.1535         85.9977         86.1688         85.9925         85.8279         85.7329         85.7010    
          85.6891         85.7077         85.6932         85.7457         85.7218         85.7301         85.8669         85.8109         85.8770         85.8143    
          85.7579         85.7381         85.7428         85.7742         85.7588         85.7808         85.7641         85.7473         85.7506         100.641    
          99.4707         98.2602         97.0942         96.0150         95.0510         94.2090         93.4961         92.8992         92.3558         91.8214    
          91.3018         91.0627         90.8215         90.5569         90.2923         90.0761         89.8401         89.5855         89.5778         89.5473    
          89.4553         89.2961         89.0673         88.7672         88.3964         87.9586         87.4663         86.9596         86.4857         86.1780    
          86.0008         86.1849         86.0109         85.8856         85.8236         85.8924         85.8330         85.7892         85.7760         85.7956    
          85.7843         85.8022         85.7913         85.8071         85.7970         85.9003         85.8420         85.9068         85.8504         85.8127    
          85.8023         85.8168         85.8070         85.8218         85.8116         85.8260         85.8157         100.655         99.5516         98.4085    
          97.2906         96.2438         95.2959         94.4580         93.7403         93.1319         92.5905         92.0962         91.6603         91.3320    
          91.0416         90.7636         90.4937         90.2169         89.8551         89.2022         89.5316         89.5749         89.4975         89.3380    
          89.1046         88.7967         88.4164         87.9688         87.4696         86.9633         86.4938         86.1934         86.0217         86.2001    
          86.0320         85.9151         85.8608         85.9225         85.8722         85.8327         85.8193         85.8437         85.8528         85.8585    
          85.9307         85.8820         85.9369         85.8905         85.8646         85.8687         85.8736         85.8768         100.660         99.6155    
          98.5243         97.4397         96.4157         95.4800         94.6460         93.9242         93.3067         92.7659         92.2858         91.8687    
          91.5179         91.2066         90.9182         90.6442         90.3707         90.0738         89.7709         89.7241         89.6659         89.5533    
          89.3773         89.1327         88.8152         88.4254         87.9699         87.4678         86.9630         86.4990         86.2073         86.0420    
          86.2120         86.0515         85.9441         85.9057         85.8911         85.9117         85.8958         85.9523         85.9193         85.9066    
          85.9250         85.9141         85.8805         85.8832         85.9610         85.9309         85.9201         85.9349         85.9248         85.9671    
          85.9391         85.9290         85.9421         85.9324         100.658         99.6498         98.5957         97.5411         96.5344         95.6066    
          94.7722         94.0437         93.4187         92.8781         92.4021         91.9870         91.6295         91.3125         91.0208         90.7469    
          90.4863         90.2345         90.0106         89.8720         89.7503         89.6034         89.4082         89.1516         88.8252         88.4260    
          87.9609         87.4545         86.9526         86.4957         86.2148         86.0583         86.2162         86.0622         85.9728         85.9454    
          85.9356         85.9477         85.9382         85.9765         85.9502         85.9406         85.9520         85.9427         85.9798         85.9540    
          85.9445         85.9553         85.9461         85.9819         85.9567         85.9475         85.9577         85.9487         100.651         99.6644    
          98.6314         97.5946         96.5941         95.6708         94.8368         94.1017         93.4740         92.9331         92.4589         92.0433    
          91.6834         91.3651         91.0728         90.8012         90.5477         90.3130         90.1080         89.9452         89.7971         89.6320    
          89.4246         89.1613         88.8299         88.4243         87.9524         87.4453         86.9463         86.4932         86.2168         86.0643    
          86.2173         86.0664         85.9841         85.9591         85.9499         85.9605         85.9513         85.9875         85.9635         85.9526    
          85.9703         85.9920         85.9748         85.9771         85.9941         85.9787         85.9793    

 HEAD WILL BE SAVED ON UNIT 1040 AT END OF TIME STEP    1, STRESS PERIOD    2


  VOLUME BUDGET FOR ENTIRE MODEL AT END OF TIME STEP    1, STRESS PERIOD   2
  ---------------------------------------------------------------------------------------------------

     CUMULATIVE VOLUME      L**3       RATES FOR THIS TIME STEP      L**3/T          PACKAGE NAME    
     ------------------                 ------------------------                     ----------------

           IN:                                      IN:
           ---                                      ---
              STO-SS =           0.0000                STO-SS =           0.0000     STORAGE         
              STO-SY =           0.0000                STO-SY =           0.0000     STORAGE         
                 WEL =           0.0000                   WEL =           0.0000     WEL_0           
                 DRN =           0.0000                   DRN =           0.0000     DRN2            
                 RIV =         218.0595                   RIV =         123.3927     RIV_0           
                 GHB =       17403.2480                   GHB =        8799.7114     GHB_0           
                 RCH =       35602.4226                   RCH =       17801.2113     RCH1            
                 RCH =        1438.3562                   RCH =         719.1781     RCH2            
                 RCH =        1669.5205                   RCH =         834.7603     RCH3            
                 EVT =           0.0000                   EVT =           0.0000     EVT             
                 CHD =           0.0000                   CHD =           0.0000     CHD_0           

            TOTAL IN =       56331.6069              TOTAL IN =       28278.2538

          OUT:                                     OUT:
          ----                                     ----
              STO-SS =           0.0000                STO-SS =           0.0000     STORAGE         
              STO-SY =           0.0000                STO-SY =           0.0000     STORAGE         
                 WEL =       21150.0000                   WEL =       11575.0000     WEL_0           
                 DRN =        5659.2752                   DRN =        2716.0075     DRN2            
                 RIV =       21156.3516                   RIV =        9813.6120     RIV_0           
                 GHB =           0.0000                   GHB =           0.0000     GHB_0           
                 RCH =           0.0000                   RCH =           0.0000     RCH1            
                 RCH =           0.0000                   RCH =           0.0000     RCH2            
                 RCH =           0.0000                   RCH =           0.0000     RCH3            
                 EVT =           0.0000                   EVT =           0.0000     EVT             
                 CHD =        8368.8913                   CHD =        4171.7481     CHD_0           

           TOTAL OUT =       56334.5181             TOTAL OUT =       28276.3676

            IN - OUT =          -2.9112              IN - OUT =           1.8862

 PERCENT DISCREPANCY =          -0.01     PERCENT DISCREPANCY =           0.01




         TIME SUMMARY AT END OF TIME STEP    1 IN STRESS PERIOD    2
                    SECONDS     MINUTES      HOURS       DAYS        YEARS
                    -----------------------------------------------------------
   TIME STEP LENGTH  86400.      1440.0      24.000      1.0000     2.73785E-03
 STRESS PERIOD TIME  86400.      1440.0      24.000      1.0000     2.73785E-03
         TOTAL TIME 1.72800E+05  2880.0      48.000      2.0000     5.47570E-03


end timestep

