                                  USG-TRANSPORT USG-TRANSPORT 
       FURTHER  DEVELOPMENTS BASED ON MODFLOW-USG
                       VERSION USG-TRANSPORT VERSION 1.6.2

 LIST FILE: milford1.lst
                         UNIT    7

 OPENING milford1.bas
 FILE TYPE:BAS6   UNIT    1   STATUS:OLD    
 FORMAT:FORMATTED              ACCESS:SEQUENTIAL          

 OPENING milford1.sms
 FILE TYPE:SMS   UNIT   19   STATUS:OLD    
 FORMAT:FORMATTED              ACCESS:SEQUENTIAL          

 OPENING milford1.dis
 FILE TYPE:DISU   UNIT   29   STATUS:OLD    
 FORMAT:FORMATTED              ACCESS:SEQUENTIAL          

 OPENING milford1.oc
 FILE TYPE:OC   UNIT   22   STATUS:OLD    
 FORMAT:FORMATTED              ACCESS:SEQUENTIAL          

 OPENING milford1.rch
 FILE TYPE:RCH   UNIT   18   STATUS:OLD    
 FORMAT:FORMATTED              ACCESS:SEQUENTIAL          

 OPENING milford1.evt
 FILE TYPE:EVT   UNIT   20   STATUS:OLD    
 FORMAT:FORMATTED              ACCESS:SEQUENTIAL          

 OPENING milford1.wel
 FILE TYPE:WEL   UNIT   12   STATUS:OLD    
 FORMAT:FORMATTED              ACCESS:SEQUENTIAL          

 OPENING milford1.riv
 FILE TYPE:RIV   UNIT   14   STATUS:OLD    
 FORMAT:FORMATTED              ACCESS:SEQUENTIAL          

 OPENING milford1.drn
 FILE TYPE:DRN   UNIT   13   STATUS:OLD    
 FORMAT:FORMATTED              ACCESS:SEQUENTIAL          

 OPENING milford1.lpf
 FILE TYPE:LPF   UNIT   11   STATUS:OLD    
 FORMAT:FORMATTED              ACCESS:SEQUENTIAL          

 OPENING milford1.cln
 FILE TYPE:CLN   UNIT  125   STATUS:OLD    
 FORMAT:FORMATTED              ACCESS:SEQUENTIAL          

 OPENING milford1.cbcln
 FILE TYPE:DATA(BINARY)   UNIT  144   STATUS:UNKNOWN
 FORMAT:BINARY                 ACCESS:SEQUENTIAL          

 OPENING milford1_FlowReduction.dat
 FILE TYPE:DATA   UNIT  166   STATUS:UNKNOWN
 FORMAT:FORMATTED              ACCESS:SEQUENTIAL          

 OPENING milford1.cbb
 FILE TYPE:DATA(BINARY)   UNIT   50   STATUS:UNKNOWN
 FORMAT:BINARY                 ACCESS:SEQUENTIAL          

 OPENING milford1.hds
 FILE TYPE:DATA(BINARY)   UNIT   30   STATUS:UNKNOWN
 FORMAT:BINARY                 ACCESS:SEQUENTIAL          

 OPENING kx.dat
 FILE TYPE:DATA   UNIT   31   STATUS:UNKNOWN
 FORMAT:FORMATTED              ACCESS:SEQUENTIAL          

 OPENING kz.dat
 FILE TYPE:DATA   UNIT   32   STATUS:UNKNOWN
 FORMAT:FORMATTED              ACCESS:SEQUENTIAL          

 OPENING recharge.dat
 FILE TYPE:DATA   UNIT   33   STATUS:UNKNOWN
 FORMAT:FORMATTED              ACCESS:SEQUENTIAL          

 BAS -- BASIC PACKAGEUSG-TRANSPORT USG-TRANSPORT VERSION 1.6.2              INPUT READ FROM UNIT    1
 
 # MODFLOW-USGs Basic Package                                                    
 # MODFLOW Data Set Created by Groundwater Vistas                                
 #
 THE FREE FORMAT OPTION HAS BEEN SELECTED
 THE UNSTRUCTURED GRID OPTION HAS BEEN SELECTED

 DIS -- UNSTRUCTURED GRID DISCRETIZATION PACKAGE, VERSION 1 : 5/17/2010 - INPUT READ FROM UNIT   29
     190080 NODES         3 NLAY   1200732 NJAG  VERT. SUBDISCRETIZATION INDEX, IVSD = -1
 INDEX FOR INPUT OF UNSTRUCTURED, FINITE-VOLUME CONNECTIVITY INFORMATION, IDSYMRD =   0
    1 STRESS PERIOD(S) IN SIMULATION
 MODEL TIME UNIT IS DAYS
 MODEL LENGTH UNIT IS UNDEFINED
  Confining bed flag for each layer:
   0   0   0

 CLN -- CONNECTED LINE NETWORK DISCRETIZATION PROCESS, VERSION 1, 3/3/2012 INPUT READ FROM UNIT  125
 FLAG (0) OR MAXIMUM NUMBER OF LINEAR NODES (NCLN) =      0
 FLAG (-VE) OR NUMBER OF LINEAR NODES (+VE) (ICLNNDS) =      6
 NUMBER OF LINEAR NODE TO MATRIX GRID CONNECTIONS (NCLNGWC) =     18

 CELL-BY-CELL FLOWS WILL BE SAVED ON UNIT   144(FLAG ICLNCB IS GREATER THAN ZERO)
 CLN HEAD OUTPUT WILL NOT BE SAVED OR PRINTED (FLAG ICLNHD IS EQUAL TO ZERO)
 CLN DDN OUTPUT WILL NOT BE SAVED OR PRINTED (FLAG ICLNDD IS EQUAL TO ZERO)
 CLN IBOUND OUTPUT WILL NOT BE SAVED OR PRINTED (FLAG ICLNIB IS EQUAL TO ZERO)
 NUMBER OF RECTANGULAR SECTION GEOMETRIES =          0



                                 IA
 READING ON UNIT  125 WITH FORMAT: (FREE)              



                                 JA
 READING ON UNIT  125 WITH FORMAT: (FREE)              

                     CONNECTED LINE NETWORK INFORMATION
                    ----------------------------------------
     CLN-NODE NO. CLNTYP ORIENTATION  CLN LENGTH    BOT ELEVATION         FANGLE         IFLIN           ICCWADI
     -----------  ------ ----------- -----------    -------------    -----------        ------    -------
              1      1          0    0.347788E+02    0.227484E+03    0.000000E+00         -1          0
              2      2          0    0.361729E+02    0.222448E+03    0.000000E+00         -1          0
              3      3          0    0.369787E+02    0.228875E+03    0.000000E+00         -1          0
              4      4          0    0.367813E+02    0.224657E+03    0.000000E+00         -1          0
              5      5          0    0.374692E+02    0.206833E+03    0.000000E+00         -1          0
              6      6          0    0.345752E+02    0.219073E+03    0.000000E+00         -1          0

                     CLN TO 3-D GRID CONNECTION INFORMATION
                    ----------------------------------------
     F-NODE NO. GW-NODE NO  EQTN. TYPE        FSKIN           FLENG         FANISO   ICGWADI
     ---------- ---------- -----------     ----------- ----------------- ---------------   ----------
              1      17979           0    0.000000E+00    0.173894E+02    0.100000E+01         0
              1      81339           0    0.000000E+00    0.869470E+01    0.100000E+01         0
              1     144699           0    0.000000E+00    0.869470E+01    0.100000E+01         0
              2      23097           0    0.000000E+00    0.180865E+02    0.100000E+01         0
              2      86457           0    0.000000E+00    0.904323E+01    0.100000E+01         0
              2     149817           0    0.000000E+00    0.904323E+01    0.100000E+01         0
              3      38769           0    0.000000E+00    0.184893E+02    0.100000E+01         0
              3     102129           0    0.000000E+00    0.924467E+01    0.100000E+01         0
              3     165489           0    0.000000E+00    0.924467E+01    0.100000E+01         0
              4      38150           0    0.000000E+00    0.183907E+02    0.100000E+01         0
              4     101510           0    0.000000E+00    0.919533E+01    0.100000E+01         0
              4     164870           0    0.000000E+00    0.919533E+01    0.100000E+01         0
              5      43155           0    0.000000E+00    0.187346E+02    0.100000E+01         0
              5     106515           0    0.000000E+00    0.936729E+01    0.100000E+01         0
              5     169875           0    0.000000E+00    0.936729E+01    0.100000E+01         0
              6      34349           0    0.000000E+00    0.172876E+02    0.100000E+01         0
              6      97709           0    0.000000E+00    0.864379E+01    0.100000E+01         0
              6     161069           0    0.000000E+00    0.864379E+01    0.100000E+01         0

                     CONDUIT NODE INFORMATION
                    ----------------------------------------
     CONDUIT NODE        RADIUS   CONDUIT SAT K
     ------------        ------   -------------
              1    0.100000E+01    0.323000E+07
              2    0.100000E+01    0.323000E+07
              3    0.100000E+01    0.323000E+07
              4    0.100000E+01    0.323000E+07
              5    0.100000E+01    0.323000E+07
              6    0.100000E+01    0.323000E+07
 

 DIS -- UNSTRUCTURED GRID DISCRETIZATION PACKAGE, VERSION 1 : 5/17/2010 - INPUT READ FROM UNIT   29

   NO. OF NODES PER LAYER =     63360



                                TOP FOR LAYER   1
 READING ON UNIT   29 WITH FORMAT: (FREE)              



                                TOP FOR LAYER   2
 READING ON UNIT   29 WITH FORMAT: (FREE)              



                                TOP FOR LAYER   3
 READING ON UNIT   29 WITH FORMAT: (FREE)              



                                BOT FOR LAYER   1
 READING ON UNIT   29 WITH FORMAT: (FREE)              



                                BOT FOR LAYER   2
 READING ON UNIT   29 WITH FORMAT: (FREE)              



                                BOT FOR LAYER   3
 READING ON UNIT   29 WITH FORMAT: (FREE)              

                     AREA =   2500.00     FOR LAYER   1



                                 IA
 READING ON UNIT   29 WITH FORMAT: (FREE)              



                                 JA
 READING ON UNIT   29 WITH FORMAT: (FREE)              



               CONNECTION LENGTH 12 FOR LAYER   1
 READING ON UNIT   29 WITH FORMAT: (FREE)              



                 PERPENDICULAR AREA
 READING ON UNIT   29 WITH FORMAT: (FREE)              


 STRESS PERIOD     LENGTH       TIME STEPS     MULTIPLIER FOR DELT    SS FLAG
 ----------------------------------------------------------------------------
        1         10.00000          1                    1.200         SS

 STEADY-STATE SIMULATION






                     BOUNDARY ARRAY FOR LAYER   1
 READING ON UNIT    1 WITH FORMAT: (FREE)              



                     BOUNDARY ARRAY FOR LAYER   2
 READING ON UNIT    1 WITH FORMAT: (FREE)              



                     BOUNDARY ARRAY FOR LAYER   3
 READING ON UNIT    1 WITH FORMAT: (FREE)              

 AQUIFER HEAD WILL BE SET TO   999.00     AT ALL NO-FLOW NODES (IBOUND=0).



                       INITIAL HEAD FOR LAYER   1
 READING ON UNIT    1 WITH FORMAT: (FREE)              



                       INITIAL HEAD FOR LAYER   2
 READING ON UNIT    1 WITH FORMAT: (FREE)              



                       INITIAL HEAD FOR LAYER   3
 READING ON UNIT    1 WITH FORMAT: (FREE)              

 OUTPUT CONTROL IS SPECIFIED ONLY AT TIME STEPS FOR WHICH OUTPUT IS DESIRED
 COMPACT CELL-BY-CELL BUDGET FILES WILL BE WRITTEN
 HEAD PRINT FORMAT CODE IS   0    DRAWDOWN PRINT FORMAT CODE IS   0
 HEADS WILL BE SAVED ON UNIT   30    DRAWDOWNS WILL BE SAVED ON UNIT    0

 LPF -- LAYER-PROPERTY FLOW PACKAGE, VERSION 7, 5/2/2005
         INPUT READ FROM UNIT   11
 # modflow-usg layer property flow (lpf) package
 CELL-BY-CELL FLOWS WILL BE SAVED ON UNIT   50
 HEAD AT CELLS THAT CONVERT TO DRY= -1.00000E+30
 No named parameters
 IKCFLAG=0, NODAL INPUT OF HY AND CV
 CONSTANTCV OPTION:
 Constant vertical conductance for convertible layers
 NOVFC OPTION:
 Do not apply the vertical flow correction

   LAYER FLAGS:
 LAYER       LAYTYP        LAYAVG         CHANI        LAYVKA        LAYWET
 ---------------------------------------------------------------------------
    1             4             0     1.000E+00             0             0
    2             4             0     1.000E+00             0             0
    3             4             0     1.000E+00             0             0

   INTERPRETATION OF LAYER FLAGS:
                        INTERBLOCK     HORIZONTAL    DATA IN
         LAYER TYPE   TRANSMISSIVITY   ANISOTROPY   ARRAY VKA   WETTABILITY
 LAYER      (LAYTYP)      (LAYAVG)       (CHANI)      (LAYVKA)      (LAYWET)
 ---------------------------------------------------------------------------
    1     UPSTREAM       HARMONIC     1.000E+00    VERTICAL K  NON-WETTABLE
    2     UPSTREAM       HARMONIC     1.000E+00    VERTICAL K  NON-WETTABLE
    3     UPSTREAM       HARMONIC     1.000E+00    VERTICAL K  NON-WETTABLE

 WETTING CAPABILITY IS NOT ACTIVE IN ANY LAYER



              HYD. COND. ALONG ROWS FOR LAYER   1
 READING ON UNIT   31 WITH FORMAT: (FREE)              



                VERTICAL HYD. COND. FOR LAYER   1
 READING ON UNIT   32 WITH FORMAT: (FREE)              



              HYD. COND. ALONG ROWS FOR LAYER   2
 READING ON UNIT   31 WITH FORMAT: (FREE)              



                VERTICAL HYD. COND. FOR LAYER   2
 READING ON UNIT   32 WITH FORMAT: (FREE)              



              HYD. COND. ALONG ROWS FOR LAYER   3
 READING ON UNIT   31 WITH FORMAT: (FREE)              



                VERTICAL HYD. COND. FOR LAYER   3
 READING ON UNIT   32 WITH FORMAT: (FREE)              

 CLN -- CONDUIT DOMAIN FLOW PACKAGE, VERSION 1, 5/17/2010 INPUT READ FROM UNIT  125

  CONDUIT BOUNDARY ARRAY  =         1



              CONDUIT INITIAL HEAD 
 READING ON UNIT  125 WITH FORMAT: (FREE)              

 WEL -- WELL PACKAGE, VERSION 7, 5/2/2005 INPUT READ FROM UNIT   12
 No named parameters
 MAXIMUM OF   1145 ACTIVE WELLS AT ONE TIME
 CELL-BY-CELL FLOWS WILL BE SAVED ON UNIT   50
 MAXIMUM NUMBER OF ACTIVE WELLS (MXACTW) =   1145
 C-B-C FLUX FLAG OR UNIT NUMBER (IWELCB) =  50
 WELL FLUX WILL BE REDUCED WHEN SATURATED THICKNESS IS LESS THAN 1 PERCENT OF CELL THICKNESS
 WELL REDUCTION INFO WILL BE WRITTEN TO UNIT:   166


     0 Well parameters

 DRN -- DRAIN PACKAGE, VERSION 7, 5/2/2005 INPUT READ FROM UNIT   13
 No named parameters
 MAXIMUM OF  27442 ACTIVE DRAINS AT ONE TIME
 CELL-BY-CELL FLOWS WILL BE SAVED ON UNIT   50


     0 Drain parameters

 RIV -- RIVER PACKAGE, VERSION 7, 5/2/2005 INPUT READ FROM UNIT   14
 # MODFLOW-USGs River Package
 No named parameters
 MAXIMUM OF   1783 ACTIVE RIVER REACHES AT ONE TIME
 CELL-BY-CELL FLOWS WILL BE SAVED ON UNIT   50


     0 River parameters

 EVT -- EVAPOTRANSPIRATION PACKAGE, VERSION 7, 5/2/2005
         INPUT READ FROM UNIT   20
 No named parameters
 OPTION 3 -- EVAPOTRANSPIRATION FROM HIGHEST ACTIVE NODE IN EACH VERTICAL COLUMN
 CELL-BY-CELL FLOWS WILL BE SAVED ON UNIT   50


     0 Evapotranspiration parameters

 RCH -- RECHARGE PACKAGE, VERSION 7, 5/2/2005 INPUT READ FROM UNIT   18
 # MODFLOW-USGs Recharge Package
 No named parameters
 OPTION 3 -- RECHARGE TO HIGHEST ACTIVE NODE IN EACH VERTICAL COLUMN
 CELL-BY-CELL FLOWS WILL BE SAVED ON UNIT   50


     0 Recharge parameters

 SMS -- SPARSE MATRIX SOLVER PACKAGE, VERSION 7, 5/2/2005
         INPUT READ FROM UNIT 19
 No named parameters
  ALL SOLVER INPUT DATA WILL BE READ FROM THE SOLVER INPUT FILE. 
 ONLY ACTIVE NODES WILL BE PASSED TO THE SOLVER
 BOTTOM DAMPING APPLIED TO EACH LINEAR SOLUTION
 OUTER ITERATION CONVERGENCE CRITERION (HCLOSE) =    0.100000E-02
 INNER ITERATION CONVERGENCE CRITERION (HICLOSE) =    0.100000E-04
 MAXIMUM NUMBER OF OUTER ITERATIONS (MXITER)     =       250
 MAXIMUM NUMBER OF INNER ITERATIONS (ITER1)      =       600
 SOLVER PRINTOUT INDEX             (IPRSMS)      =         1
 NONLINEAR ITERATION METHOD    (NONLINMETH)      =         1
 LINEAR SOLUTION METHOD           (LINMETH)      =         1
 D-B-D WEIGHT REDUCTION FACTOR      (THETA)      =    0.700000E+00
 D-B-D WEIGHT INCREASE INCREMENT    (KAPPA)      =    0.700000E-01
 D-B-D PREVIOUS HISTORY FACTOR      (GAMMA)      =    0.100000E+00
 MOMENTUM TERM                  (AMOMENTUM)      =    0.000000E+00
 MAXIMUM NUMBER OF BACKTRACKS    (NUMTRACK)      =       200
 BACKTRACKING TOLERANCE FACTOR       (BTOL)      =    0.110000E+01
 BACKTRACKING REDUCTION FACTOR     (BREDUC)      =    0.200000E+00
 BACKTRACKING REIDUAL LIMIT       (RES_LIM)      =    0.100000E+01
 ***Newton Linearization will be used***
 
 ***XMD linear solver will be used***
 XMD -- LINEAR SOLUTION BY XMD PACKAGE VERSION 1.30
     BY MOTOMU IBARAKI, OHIO STATE UNIVERSITY, COLOMBUS, OH
                 INPUT READ FROM UNIT 19
 ACCELERATION METHOD                    (IACL) =         1
 EQUATION ORDERING FLAG               (NORDER) =         0
 LEVEL OF FILL                         (LEVEL) =         7
 MAXIMUM NUMBER OF ORTHOGONALIZATIONS  (NORTH) =        14
 INDEX FOR USING REDUCED SYSTEM      (IREDSYS) =         0
 RESID. REDUCTION CONVERGE CRITERION  (RRCTOL) =  0.000000E+00
 INDEX FOR USING DROP TOLERANCE     (IDROPTOL) =         1
 DROP TOLERANCE VALUE                 ((EPSRN) =  0.100000E-02
 
1
                            STRESS PERIOD NO.    1, LENGTH =   10.00000    
                            -----------------------------------------------

                              NUMBER OF TIME STEPS =         1

                               MULTIPLIER FOR DELT =     1.200

                            INITIAL TIME STEP SIZE =   10.00000    

 WEL -- WELL PACKAGE, VERSION 7, 5/2/2005 INPUT READ FROM UNIT   12

 WELL NO.      NODE       STRESS FACTOR         
 -----------------------------------------------
        1       126809       236.9           0.000    
        2       126810       237.6           0.000    
        3       126811       237.2           0.000    
        4       126812       235.3           0.000    
        5       126813       231.9           0.000    
        6       126814       228.1           0.000    
        7       126815       224.4           0.000    
        8       126816       219.8           0.000    
        9       126817       214.7           0.000    
       10       127125       236.5           0.000    
       11       127126       235.7           0.000    
       12       127127       236.5           0.000    
       13       127128       233.0           0.000    
       14       127138       205.5           0.000    
       15       127139       206.5           0.000    
       16       127140       203.8           0.000    
       17       127141       201.2           0.000    
       18       127142       200.4           0.000    
       19       127143       200.1           0.000    
       20       127443       266.4           0.000    
       21       127444       122.2           0.000    
       22       127464       57.95           0.000    
       23       127465       204.8           0.000    
       24       127466       208.8           0.000    
       25       127467       224.7           0.000    
       26       127468       155.5           0.000    
       27       127762       303.4           0.000    
       28       127763       31.34           0.000    
       29       127788       74.20           0.000    
       30       127789       235.1           0.000    
       31       127790       237.9           0.000    
       32       128081       246.9           0.000    
       33       128111       165.8           0.000    
       34       128112       236.5           0.000    
       35       128113       213.9           0.000    
       36       128399       271.3           0.000    
       37       128400       155.0           0.000    
       38       128433       16.59           0.000    
       39       128434       219.7           0.000    
       40       128435       187.0           0.000    
       41       128718       338.2           0.000    
       42       128719       57.34           0.000    
       43       128755       66.93           0.000    
       44       128756       211.3           0.000    
       45       129037       299.5           0.000    
       46       129076       30.60           0.000    
       47       129077       224.0           0.000    
       48       129322       499.8           0.000    
       49       129323       393.4           0.000    
       50       129324       396.4           0.000    
       51       129325       400.0           0.000    
       52       129355       269.0           0.000    
       53       129356       195.2           0.000    
       54       129398       206.4           0.000    
       55       129641       428.6           0.000    
       56       129646       316.1           0.000    
       57       129647       412.4           0.000    
       58       129648       421.3           0.000    
       59       129649       431.2           0.000    
       60       129674       322.2           0.000    
       61       129675       86.43           0.000    
       62       129719       166.9           0.000    
       63       129961       208.6           0.000    
       64       129970       250.2           0.000    
       65       129971       466.1           0.000    
       66       129972       485.3           0.000    
       67       129973       507.6           0.000    
       68       129991       218.2           0.000    
       69       129992       310.1           0.000    
       70       129993       129.2           0.000    
       71       130040       165.2           0.000    
       72       130280       434.4           0.000    
       73       130294       182.9           0.000    
       74       130295       572.6           0.000    
       75       130296       605.8           0.000    
       76       130297       637.4           0.000    
       77       130298       590.3           0.000    
       78       130309       272.0           0.000    
       79       130310       318.9           0.000    
       80       130311       93.68           0.000    
       81       130360       135.0           0.000    
       82       130600       197.8           0.000    
       83       130618       76.80           0.000    
       84       130619       702.9           0.000    
       85       130620       711.4           0.000    
       86       130621       699.6           0.000    
       87       130622       651.1           0.000    
       88       130623       601.5           0.000    
       89       130624       539.7           0.000    
       90       130625       474.7           0.000    
       91       130626       415.1           0.000    
       92       130627       381.1           0.000    
       93       130628       365.5           0.000    
       94       130629       62.52           0.000    
       95       130680       5.458           0.000    
       96       130681       125.0           0.000    
       97       130919       457.9           0.000    
       98       131001       128.9           0.000    
       99       131239       194.4           0.000    
      100       131321       127.4           0.000    
      101       131558       504.2           0.000    
      102       131641       126.8           0.000    
      103       131877       341.6           0.000    
      104       131878       200.0           0.000    
      105       131961       126.3           0.000    
      106       132197       583.8           0.000    
      107       132280       53.08           0.000    
      108       132281       154.2           0.000    
      109       132516       427.7           0.000    
      110       132517       213.6           0.000    
      111       132599       128.0           0.000    
      112       132600       97.25           0.000    
      113       132836       702.7           0.000    
      114       132917       52.91           0.000    
      115       132918       154.6           0.000    
      116       132919       23.56           0.000    
      117       133155       547.8           0.000    
      118       133156       233.1           0.000    
      119       133236       136.1           0.000    
      120       133237       106.3           0.000    
      121       133475       859.1           0.000    
      122       133554       57.10           0.000    
      123       133555       173.9           0.000    
      124       133795       476.6           0.000    
      125       133873       155.8           0.000    
      126       133874       127.0           0.000    
      127       134114       931.2           0.000    
      128       134191       62.97           0.000    
      129       134192       207.4           0.000    
      130       134434       996.0           0.000    
      131       134511       201.1           0.000    
      132       134754       1051.           0.000    
      133       134831       202.5           0.000    
      134       135074       1092.           0.000    
      135       135150       192.0           0.000    
      136       135394       1114.           0.000    
      137       135470       221.4           0.000    
      138       135714       123.0           0.000    
      139       135790       227.2           0.000    
      140       136033       1095.           0.000    
      141       136109       121.1           0.000    
      142       136110       106.1           0.000    
      143       136353       1066.           0.000    
      144       136429       223.0           0.000    
      145       136673       1028.           0.000    
      146       136749       217.4           0.000    
      147       136993       985.1           0.000    
      148       137069       172.7           0.000    
      149       137313       633.1           0.000    
      150       137632       901.1           0.000    
      151       137708       180.1           0.000    
      152       137952       872.1           0.000    
      153       138028       27.48           0.000    
      154       138029       143.2           0.000    
      155       138088       13.51           0.000    
      156       138272       850.7           0.000    
      157       138349       161.0           0.000    
      158       138404       18.46           0.000    
      159       138405       18.20           0.000    
      160       138406       6.994           0.000    
      161       138592       837.7           0.000    
      162       138669       151.8           0.000    
      163       138723       8.372           0.000    
      164       138912       833.7           0.000    
      165       138989       143.6           0.000    
      166       139042       13.14           0.000    
      167       139232       194.8           0.000    
      168       139309       137.1           0.000    
      169       139361       18.07           0.000    
      170       139551       844.1           0.000    
      171       139629       111.9           0.000    
      172       139630       19.50           0.000    
      173       139680       22.77           0.000    
      174       139871       864.8           0.000    
      175       139950       125.9           0.000    
      176       139999       24.70           0.000    
      177       140191       894.0           0.000    
      178       140270       123.2           0.000    
      179       140318       21.40           0.000    
      180       140319       2.132           0.000    
      181       140511       928.4           0.000    
      182       140590       121.4           0.000    
      183       140637       15.82           0.000    
      184       140638       6.187           0.000    
      185       140831       967.8           0.000    
      186       140910       120.3           0.000    
      187       140956       10.70           0.000    
      188       140957       9.551           0.000    
      189       141151       1004.           0.000    
      190       141230       120.5           0.000    
      191       141275       6.364           0.000    
      192       141276       12.13           0.000    
      193       141471       1038.           0.000    
      194       141550       65.51           0.000    
      195       141551       55.81           0.000    
      196       141594       2.770           0.000    
      197       141595       14.23           0.000    
      198       141791       1066.           0.000    
      199       141871       122.6           0.000    
      200       141914       15.95           0.000    
      201       142111       1085.           0.000    
      202       142191       123.8           0.000    
      203       142233       15.27           0.000    
      204       142234      0.2661           0.000    
      205       142431       1169.           0.000    
      206       142432       43.34           0.000    
      207       142511       123.8           0.000    
      208       142552       12.72           0.000    
      209       142553       3.220           0.000    
      210       142752       1364.           0.000    
      211       142831       122.2           0.000    
      212       142872       6.483           0.000    
      213       143072       355.0           0.000    
      214       143073       969.0           0.000    
      215       143191       16.28           0.000    
      216       143393       723.3           0.000    
      217       143394       554.3           0.000    
      218       143472       89.13           0.000    
      219       143511       1.330           0.000    
      220       143714       1050.           0.000    
      221       143715       174.1           0.000    
      222       143792       109.9           0.000    
      223       144035       1167.           0.000    
      224       144112       104.2           0.000    
      225       144150       18.34           0.000    
      226       144356       950.3           0.000    
      227       144432       105.3           0.000    
      228       144433       6.262           0.000    
      229       144470       19.64           0.000    
      230       144676       492.4           0.000    
      231       144677       595.5           0.000    
      232       144753       113.7           0.000    
      233       144754       31.89           0.000    
      234       144790       20.78           0.000    
      235       144997       876.7           0.000    
      236       145074       71.96           0.000    
      237       145075       73.72           0.000    
      238       145110       21.79           0.000    
      239       145317       880.0           0.000    
      240       145395       26.09           0.000    
      241       145396       96.83           0.000    
      242       145397       16.27           0.000    
      243       145430       22.58           0.000    
      244       145637       375.8           0.000    
      245       145638       506.5           0.000    
      246       145717       79.90           0.000    
      247       145718       57.99           0.000    
      248       145750       23.18           0.000    
      249       145958       26.22           0.000    
      250       146038       38.02           0.000    
      251       146039       95.91           0.000    
      252       146070       23.43           0.000    
      253       146277       931.5           0.000    
      254       146360       90.10           0.000    
      255       146361       43.02           0.000    
      256       146390       23.49           0.000    
      257       146597       961.5           0.000    
      258       146681       43.52           0.000    
      259       146682       71.51           0.000    
      260       146683       66.54           0.000    
      261       146684       35.85           0.000    
      262       146710       23.35           0.000    
      263       146917       993.8           0.000    
      264       147004       23.85           0.000    
      265       147005       52.10           0.000    
      266       147006       46.32           0.000    
      267       147007       40.93           0.000    
      268       147030       23.12           0.000    
      269       147237       252.9           0.000    
      270       147328       30.20           0.000    
      271       147329       30.69           0.000    
      272       147330       27.77           0.000    
      273       147350       22.72           0.000    
      274       147556       1065.           0.000    
      275       147651       8.538           0.000    
      276       147652       23.54           0.000    
      277       147653       22.96           0.000    
      278       147654       22.91           0.000    
      279       147670       22.38           0.000    
      280       147876       1094.           0.000    
      281       147975       18.91           0.000    
      282       147976       24.02           0.000    
      283       147977       24.89           0.000    
      284       147989       30.53           0.000    
      285       147990       1.944           0.000    
      286       148196       1102.           0.000    
      287       148298       7.327           0.000    
      288       148299       26.55           0.000    
      289       148300       26.84           0.000    
      290       148301       26.87           0.000    
      291       148306       23.41           0.000    
      292       148307       22.89           0.000    
      293       148308       19.42           0.000    
      294       148516       1106.           0.000    
      295       148622       19.94           0.000    
      296       148623       25.72           0.000    
      297       148624       16.88           0.000    
      298       148836       1105.           0.000    
      299       149156       1093.           0.000    
      300       149476       1072.           0.000    
      301       149797       267.2           0.000    
      302       150117       1013.           0.000    
      303       150437       990.2           0.000    
      304       150757       946.8           0.000    
      305       151396       962.7           0.000    
      306       151716       965.8           0.000    
      307       152036       860.4           0.000    
      308       152675       1116.           0.000    
      309       152995       485.7           0.000    
      310       153314       1182.           0.000    
      311       153634       551.6           0.000    
      312       153953       1214.           0.000    
      313       154273       593.6           0.000    
      314       154592       1190.           0.000    
      315       154912       611.3           0.000    
      316       155231       979.4           0.000    
      317       155550       887.4           0.000    
      318       155869       805.3           0.000    
      319       156187       961.6           0.000    
      320       156188       722.7           0.000    
      321       156505       961.4           0.000    
      322       156506       850.0           0.000    
      323       156823       981.0           0.000    
      324       156824       440.8           0.000    
      325       157140       237.8           0.000    
      326       157141       995.2           0.000    
      327       126971       16.26           0.000    
      328       126972       15.97           0.000    
      329       126973       10.11           0.000    
      330       126975       4.725           0.000    
      331       126976       17.07           0.000    
      332       127288       11.72           0.000    
      333       127289       17.01           0.000    
      334       127290       16.38           0.000    
      335       127296       3.906           0.000    
      336       127297       18.64           0.000    
      337       127606       18.18           0.000    
      338       127607       17.86           0.000    
      339       127608       5.695           0.000    
      340       127617       3.059           0.000    
      341       127618       18.21           0.000    
      342       127923       18.96           0.000    
      343       127924       18.91           0.000    
      344       127925       12.46           0.000    
      345       127938       16.85           0.000    
      346       128239       19.12           0.000    
      347       128240       18.97           0.000    
      348       128241       18.71           0.000    
      349       128242       18.94           0.000    
      350       128258       17.09           0.000    
      351       128553       23.83           0.000    
      352       128554       19.56           0.000    
      353       128555       19.53           0.000    
      354       128556       17.20           0.000    
      355       128578       10.70           0.000    
      356       128872       19.64           0.000    
      357       128873       2.479           0.000    
      358       129192       20.56           0.000    
      359       129217       17.22           0.000    
      360       129511       22.06           0.000    
      361       129537       17.18           0.000    
      362       129831       16.44           0.000    
      363       129857       17.20           0.000    
      364       130150       21.77           0.000    
      365       130176       12.13           0.000    
      366       130177       6.164           0.000    
      367       130470       12.28           0.000    
      368       130496       18.34           0.000    
      369       130789       21.30           0.000    
      370       130815       8.096           0.000    
      371       130816       10.10           0.000    
      372       131109       8.077           0.000    
      373       131135       17.88           0.000    
      374       131428       20.56           0.000    
      375       131454       4.115           0.000    
      376       131455       13.38           0.000    
      377       131747       15.95           0.000    
      378       131748       4.127           0.000    
      379       131774       16.87           0.000    
      380       132067       19.77           0.000    
      381       132093       4.023           0.000    
      382       132094       13.33           0.000    
      383       132386       22.10           0.000    
      384       132387      0.4135           0.000    
      385       132413       17.23           0.000    
      386       132704       18.29           0.000    
      387       132705       8.585           0.000    
      388       132732       12.35           0.000    
      389       132733       4.424           0.000    
      390       133022       18.53           0.000    
      391       133023       4.631           0.000    
      392       133051       4.154           0.000    
      393       133052       12.34           0.000    
      394       133340       19.04           0.000    
      395       133341      0.6867           0.000    
      396       133371       16.59           0.000    
      397       133658       16.03           0.000    
      398       133690       13.05           0.000    
      399       133975       19.42           0.000    
      400       133976       11.89           0.000    
      401       134009       4.912           0.000    
      402       134010       12.83           0.000    
      403       134294       7.541           0.000    
      404       134329       18.67           0.000    
      405       134612       3.267           0.000    
      406       134648       15.58           0.000    
      407       134967       6.222           0.000    
      408       134968       14.70           0.000    
      409       135287       19.88           0.000    
      410       135565       8.115           0.000    
      411       135607       19.68           0.000    
      412       135882       15.86           0.000    
      413       135883       5.023           0.000    
      414       135926       7.411           0.000    
      415       136200       16.84           0.000    
      416       136201       1.792           0.000    
      417       136246       21.56           0.000    
      418       136518       22.02           0.000    
      419       136519      0.8558           0.000    
      420       136566       22.35           0.000    
      421       136837       22.40           0.000    
      422       136838      0.8777           0.000    
      423       136886       23.13           0.000    
      424       137156       22.53           0.000    
      425       137157      0.8910           0.000    
      426       137205       10.13           0.000    
      427       137475       22.39           0.000    
      428       137476      0.8930           0.000    
      429       137525       24.58           0.000    
      430       137794       21.90           0.000    
      431       137795      0.8498           0.000    
      432       137845       25.18           0.000    
      433       138089       18.33           0.000    
      434       138090       18.57           0.000    
      435       138113       21.12           0.000    
      436       138114      0.8606           0.000    
      437       138165       25.60           0.000    
      438       138413       18.80           0.000    
      439       138414       18.88           0.000    
      440       138415       18.60           0.000    
      441       138416       18.24           0.000    
      442       138417       17.68           0.000    
      443       138432       20.20           0.000    
      444       138433      0.8300           0.000    
      445       138484       12.53           0.000    
      446       138739       8.442           0.000    
      447       138740       15.32           0.000    
      448       138741       14.54           0.000    
      449       138742       13.84           0.000    
      450       138743       13.19           0.000    
      451       138744       12.71           0.000    
      452       138745       12.46           0.000    
      453       138746       12.39           0.000    
      454       138747       12.49           0.000    
      455       138748       12.78           0.000    
      456       138749       13.15           0.000    
      457       138750       13.64           0.000    
      458       138751       14.19           0.000    
      459       138752      0.6187           0.000    
      460       138804       25.85           0.000    
      461       139124       25.79           0.000    
      462       139444       25.63           0.000    
      463       139763       13.90           0.000    
      464       140083       25.03           0.000    
      465       140403       24.77           0.000    
      466       140723       24.62           0.000    
      467       141043       20.91           0.000    
      468       141683       23.86           0.000    
      469       142003       23.78           0.000    
      470       142323       23.72           0.000    
      471       142643       23.68           0.000    
      472       142963       1.630           0.000    
      473       142964       22.01           0.000    
      474       143284       23.63           0.000    
      475       143604       23.63           0.000    
      476       143924       23.48           0.000    
      477       144244       23.26           0.000    
      478       144564       23.19           0.000    
      479       145525       8.922           0.000    
      480       145845       22.10           0.000    
      481       146165       21.59           0.000    
      482       146485       21.14           0.000    
      483       146805       20.63           0.000    
      484       147125       23.55           0.000    
      485       147126       10.92           0.000    
      486       147446       10.62           0.000    
      487       147447       20.76           0.000    
      488       147768       7.766           0.000    
      489       147769       19.86           0.000    
      490       148090       5.575           0.000    
      491       148091       18.94           0.000    
      492       148092       19.93           0.000    
      493       148093       21.23           0.000    
      494       148094       22.58           0.000    
      495       148095       23.96           0.000    
      496       148096       25.26           0.000    
      497       148097       26.40           0.000    
      498       148098       27.34           0.000    
      499       148099       29.41           0.000    
      500       148100       29.95           0.000    
      501       148421       21.75           0.000    
      502       148422       30.12           0.000    
      503       148423       30.38           0.000    
      504       148744       18.56           0.000    
      505       148745       46.27           0.000    
      506       148746       2.313           0.000    
      507       149065       32.49           0.000    
      508       149385       32.28           0.000    
      509       149705       31.52           0.000    
      510       150024       34.80           0.000    
      511       150343       36.57           0.000    
      512       150661       3.251           0.000    
      513       150662       35.36           0.000    
      514       150981       28.88           0.000    
      515       151300       3.055           0.000    
      516       151301       25.19           0.000    
      517       151620       28.55           0.000    
      518       151940       28.71           0.000    
      519       152259       27.56           0.000    
      520       152579       29.28           0.000    
      521       152898       23.19           0.000    
      522       152899       6.246           0.000    
      523       153218       29.48           0.000    
      524       153538       12.73           0.000    
      525       154498       27.08           0.000    
      526       154818       27.43           0.000    
      527       155138       27.67           0.000    
      528       156099       8.420           0.000    
      529       156419       30.02           0.000    
      530       156739       30.84           0.000    
      531       157059       31.67           0.000    
      532       157379       32.68           0.000    
      533       158020       20.26           0.000    
      534       158340       36.35           0.000    
      535       158660       38.78           0.000    
      536       158980       19.33           0.000    
      537       159301       39.56           0.000    
      538       159621       32.65           0.000    
      539       159942       39.37           0.000    
      540       160262       39.17           0.000    
      541       160582       6.158           0.000    
      542       160583       32.73           0.000    
      543       160903       38.74           0.000    
      544       161223       18.98           0.000    
      545       161544       38.74           0.000    
      546       161864       32.11           0.000    
      547       162185       39.28           0.000    
      548       162505       39.63           0.000    
      549       162825       6.328           0.000    
      550       162826       33.89           0.000    
      551       163146       40.71           0.000    
      552       163466       20.20           0.000    
      553       163467       21.08           0.000    
      554       163787       41.83           0.000    
      555       164107       34.83           0.000    
      556       164428       50.34           0.000    
      557       164748       8.348           0.000    
      558       164749       47.42           0.000    
      559       165069       8.379           0.000    
      560       165070       47.52           0.000    
      561       165390       8.384           0.000    
      562       165391       47.62           0.000    
      563       165711       8.309           0.000    
      564       165712       47.73           0.000    
      565       166032       6.278           0.000    
      566       166033       43.10           0.000    
      567       166034       43.55           0.000    
      568       166355       29.76           0.000    
      569       166356       45.72           0.000    
      570       166357       38.29           0.000    
      571       166677       8.949           0.000    
      572       166678       49.39           0.000    
      573       166679       51.14           0.000    
      574       167000       38.07           0.000    
      575       167001       55.56           0.000    
      576       167002       28.63           0.000    
      577       167322       37.45           0.000    
      578       167323       52.22           0.000    
      579       167643       16.05           0.000    
      580       167644       68.85           0.000    
      581       167965       62.20           0.000    
      582       168286       39.08           0.000    
      583       168287       48.42           0.000    
      584       168607       16.83           0.000    
      585       168608       62.76           0.000    
      586       168929       50.47           0.000    
      587       168930       49.87           0.000    
      588       169251       30.65           0.000    
      589       169252       46.31           0.000    
      590       169573       4.237           0.000    
      591       169574       43.76           0.000    
      592       169575       43.09           0.000    
      593       169896       23.29           0.000    
      594       169897       45.51           0.000    
      595       170218       31.25           0.000    
      596       170219       45.29           0.000    
      597       170540       44.90           0.000    
      598       170541       32.07           0.000    
      599       170861       13.18           0.000    
      600       170862       45.08           0.000    
      601       170863       18.32           0.000    
      602       171183       26.41           0.000    
      603       171184       44.22           0.000    
      604       171185       4.814           0.000    
      605       171505       38.50           0.000    
      606       171506       34.43           0.000    
      607       171826       7.970           0.000    
      608       171827       37.24           0.000    
      609       171828       36.28           0.000    
      610       171829       25.43           0.000    
      611       172149       9.657           0.000    
      612       172150       33.80           0.000    
      613       172151       32.89           0.000    
      614       172152       22.75           0.000    
      615       172472       10.23           0.000    
      616       172473       33.14           0.000    
      617       172794       11.79           0.000    
      618       172795       32.03           0.000    
      619       173116       13.52           0.000    
      620       173117       3.881           0.000    
      621       164969       1.992           0.000    
      622       164970       15.22           0.000    
      623       164971       14.04           0.000    
      624       164972       13.52           0.000    
      625       164973       13.11           0.000    
      626       164974       12.80           0.000    
      627       164975       12.56           0.000    
      628       164976       12.49           0.000    
      629       164977       12.50           0.000    
      630       164978       12.60           0.000    
      631       164979       12.77           0.000    
      632       164980       13.01           0.000    
      633       164981       13.28           0.000    
      634       164982       13.57           0.000    
      635       164983       13.84           0.000    
      636       164984       14.09           0.000    
      637       164985       14.29           0.000    
      638       164986       11.51           0.000    
      639       165286       5.085           0.000    
      640       165287       16.97           0.000    
      641       165288       16.45           0.000    
      642       165289       13.91           0.000    
      643       165309       14.34           0.000    
      644       165310       14.14           0.000    
      645       165311       13.94           0.000    
      646       165312       13.68           0.000    
      647       165313       13.40           0.000    
      648       165314       13.12           0.000    
      649       165315       12.86           0.000    
      650       165316       12.64           0.000    
      651       165317       12.63           0.000    
      652       165318       12.20           0.000    
      653       165604       17.97           0.000    
      654       165605       17.77           0.000    
      655       165606       12.40           0.000    
      656       165639       12.62           0.000    
      657       165640       12.64           0.000    
      658       165641       12.69           0.000    
      659       165642       12.85           0.000    
      660       165643       2.759           0.000    
      661       165922       19.70           0.000    
      662       165923       9.750           0.000    
      663       165963       10.28           0.000    
      664       165964       13.20           0.000    
      665       165965       13.40           0.000    
      666       165966       13.56           0.000    
      667       165967       6.307           0.000    
      668       166240       17.13           0.000    
      669       166241       12.26           0.000    
      670       166287       7.616           0.000    
      671       166288       14.42           0.000    
      672       166289       14.13           0.000    
      673       166559       20.09           0.000    
      674       166560       3.253           0.000    
      675       166610       14.22           0.000    
      676       166611       14.02           0.000    
      677       166612       5.958           0.000    
      678       166877       11.16           0.000    
      679       166878       14.41           0.000    
      680       166932       7.711           0.000    
      681       166933       13.26           0.000    
      682       166934       11.41           0.000    
      683       167197       18.28           0.000    
      684       167255       12.32           0.000    
      685       167256       11.95           0.000    
      686       167257       3.923           0.000    
      687       167516       16.44           0.000    
      688       167517       2.209           0.000    
      689       167577       7.600           0.000    
      690       167578       11.37           0.000    
      691       167579       4.577           0.000    
      692       167836       18.98           0.000    
      693       167899       8.640           0.000    
      694       167900       7.111           0.000    
      695       168155       17.44           0.000    
      696       168156       2.326           0.000    
      697       168220       5.962           0.000    
      698       168221       9.739           0.000    
      699       168475       20.30           0.000    
      700       168542       12.63           0.000    
      701       168794       18.67           0.000    
      702       168795       2.493           0.000    
      703       168863       13.94           0.000    
      704       168864       2.080           0.000    
      705       169114       21.59           0.000    
      706       169184       12.66           0.000    
      707       169185       5.290           0.000    
      708       169414       3.704           0.000    
      709       169415       31.90           0.000    
      710       169433       19.43           0.000    
      711       169434       2.623           0.000    
      712       169505       10.42           0.000    
      713       169506       9.011           0.000    
      714       169736       45.99           0.000    
      715       169737       19.16           0.000    
      716       169753       22.16           0.000    
      717       169827       15.87           0.000    
      718       169828       1.875           0.000    
      719       170057       24.14           0.000    
      720       170058       40.26           0.000    
      721       170059       7.724           0.000    
      722       170072       19.41           0.000    
      723       170073       2.659           0.000    
      724       170148       15.23           0.000    
      725       170149       15.46           0.000    
      726       170379       28.83           0.000    
      727       170380       32.48           0.000    
      728       170392       21.97           0.000    
      729       170470       19.17           0.000    
      730       170471       12.13           0.000    
      731       170700      0.7932           0.000    
      732       170701       27.93           0.000    
      733       170702       23.86           0.000    
      734       170703       22.04           0.000    
      735       170704       20.61           0.000    
      736       170705       19.58           0.000    
      737       170706       18.89           0.000    
      738       170707       18.62           0.000    
      739       170792       20.87           0.000    
      740       170793       7.710           0.000    
      741       171114       21.97           0.000    
      742       171115       2.505           0.000    
      743       171435       19.80           0.000    
      744       171436       19.32           0.000    
      745       171757       22.39           0.000    
      746       171758       12.08           0.000    
      747       172079       13.53           0.000    
      748       172399       13.89           0.000    
      749       172400       13.03           0.000    
      750       172720       14.38           0.000    
      751       172721       12.66           0.000    
      752       173041       15.06           0.000    
      753       173042       12.48           0.000    
      754       173362       16.05           0.000    
      755       173363       12.57           0.000    
      756       173683       17.39           0.000    
      757       173684       12.86           0.000    
      758       174004       19.24           0.000    
      759       174005       13.26           0.000    
      760       174325       21.39           0.000    
      761       174326       13.73           0.000    
      762       174646       23.71           0.000    
      763       174647       16.23           0.000    
      764       174967       18.56           0.000    
      765       174968       32.25           0.000    
      766       175289       36.54           0.000    
      767       175290       13.47           0.000    
      768       175610       23.58           0.000    
      769       175611       30.43           0.000    
      770       175932       37.31           0.000    
      771       175933       10.06           0.000    
      772       176253       27.28           0.000    
      773       176254       26.86           0.000    
      774       176575       37.59           0.000    
      775       176576       6.496           0.000    
      776       176896       31.70           0.000    
      777       176897       24.23           0.000    
      778       177218       40.17           0.000    
      779       177219       3.113           0.000    
      780       177539       38.87           0.000    
      781       177540       22.48           0.000    
      782       177860       27.94           0.000    
      783       177861       18.96           0.000    
      784       178181       42.27           0.000    
      785       178182       6.909           0.000    
      786       178502       51.47           0.000    
      787       178823       47.09           0.000    
      788       179143       40.24           0.000    
      789       179144       6.616           0.000    
      790       179464       44.53           0.000    
      791       179784       44.84           0.000    
      792       180104       45.06           0.000    
      793       180424       44.84           0.000    
      794       180744       44.57           0.000    
      795       181064       44.03           0.000    
      796       181384       41.39           0.000    
      797       181385       8.122           0.000    
      798       181705       47.72           0.000    
      799       181706       17.83           0.000    
      800       182027       27.07           0.000    
      801       182348       35.74           0.000    
      802       182669       44.03           0.000    
      803       182990       48.70           0.000    
      804       183311       36.30           0.000    
      805       183631       37.05           0.000    
      806       183632       6.213           0.000    
      807       183952       42.42           0.000    
      808       184272       22.67           0.000    
      809       184273       19.26           0.000    
      810       184312       31.00           0.000    
      811       184593       41.34           0.000    
      812       184632       61.47           0.000    
      813       184914       31.74           0.000    
      814       184952       6.466           0.000    
      815       185234       36.96           0.000    
      816       185235       3.707           0.000    
      817       185271       61.38           0.000    
      818       185555       40.58           0.000    
      819       185591       60.92           0.000    
      820       185876       16.55           0.000    
      821       185911       60.59           0.000    
      822       186196       40.34           0.000    
      823       186197       7.252           0.000    
      824       186231       60.11           0.000    
      825       186517       41.98           0.000    
      826       186518       8.995           0.000    
      827       186551       59.67           0.000    
      828       186838       41.01           0.000    
      829       186839       10.84           0.000    
      830       186871       59.25           0.000    
      831       187159       40.16           0.000    
      832       187160       12.79           0.000    
      833       187191       22.29           0.000    
      834       187480       39.26           0.000    
      835       187481       16.27           0.000    
      836       187510       59.42           0.000    
      837       187801       33.06           0.000    
      838       187802       28.16           0.000    
      839       187830       59.77           0.000    
      840       188122       21.95           0.000    
      841       188123       40.44           0.000    
      842       188150       65.73           0.000    
      843       188444       51.28           0.000    
      844       188445       1.439           0.000    
      845       188469       41.62           0.000    
      846       188470       28.69           0.000    
      847       188765       50.03           0.000    
      848       188766       13.43           0.000    
      849       188789       71.68           0.000    
      850       189086       37.90           0.000    
      851       189087       25.31           0.000    
      852       189109       11.62           0.000    
      853       189407       25.88           0.000    
      854       189408       37.03           0.000    
      855       189428       67.55           0.000    
      856       189728       12.72           0.000    
      857       189729       39.72           0.000    
      858       189730       39.73           0.000    
      859       189731       39.92           0.000    
      860       189732       40.37           0.000    
      861       189733       41.13           0.000    
      862       189734       42.26           0.000    
      863       189735       26.67           0.000    
      864       189743       17.89           0.000    
      865       189744       64.72           0.000    
      866       189745       65.76           0.000    
      867       189746       66.11           0.000    
      868       189747       84.49           0.000    
      869       190056       45.92           0.000    
      870       190057       48.15           0.000    
      871       190058       50.79           0.000    
      872       190059       53.41           0.000    
      873       190060       56.40           0.000    
      874       190061       59.14           0.000    
      875       190062       61.59           0.000    
      876       161603       495.8           0.000    
      877       161604       410.6           0.000    
      878       161924       931.8           0.000    
      879       161925       489.7           0.000    
      880       162245       820.4           0.000    
      881       162246       450.5           0.000    
      882       162566       1076.           0.000    
      883       162887       802.7           0.000    
      884       163207       902.8           0.000    
      885       163208       126.4           0.000    
      886       163528       1205.           0.000    
      887       163529       189.0           0.000    
      888       163849       753.6           0.000    
      889       163850       967.2           0.000    
      890       163851       948.1           0.000    
      891       164172       1050.           0.000    
      892       164173       1087.           0.000    
      893       164174       784.5           0.000    
      894       164494       342.2           0.000    
      895       164495       1160.           0.000    
      896       164496       1149.           0.000    
      897       164497       961.5           0.000    
      898       164817       149.5           0.000    
      899       164818       1078.           0.000    
      900       164819       1035.           0.000    
      901       164820       992.5           0.000    
      902       164821       956.3           0.000    
      903       164822       142.6           0.000    
      904       165142       801.3           0.000    
      905       165143       951.9           0.000    
      906       165144       976.7           0.000    
      907       165145       855.5           0.000    
      908       165466       914.1           0.000    
      909       165786       804.2           0.000    
      910       165787       538.1           0.000    
      911       166107       1224.           0.000    
      912       166108       128.8           0.000    
      913       166428       1207.           0.000    
      914       166748       969.8           0.000    
      915       167068       887.6           0.000    
      916       167388       796.7           0.000    
      917       167708       699.6           0.000    
      918       168028       609.5           0.000    
      919       168118       29.32           0.000    
      920       168119       42.02           0.000    
      921       168120       42.01           0.000    
      922       168121       41.96           0.000    
      923       168122       41.77           0.000    
      924       168437       39.12           0.000    
      925       168438       20.39           0.000    
      926       168444       6.073           0.000    
      927       168445       40.80           0.000    
      928       168446       42.94           0.000    
      929       168447       42.62           0.000    
      930       168448       20.09           0.000    
      931       168669       40.78           0.000    
      932       168756       40.14           0.000    
      933       168757       18.90           0.000    
      934       168768       22.45           0.000    
      935       168769       42.86           0.000    
      936       168770       43.15           0.000    
      937       168771       3.996           0.000    
      938       168989       383.0           0.000    
      939       169075       40.91           0.000    
      940       169076       17.27           0.000    
      941       169091       39.95           0.000    
      942       169092       44.54           0.000    
      943       169093       31.97           0.000    
      944       169309       335.6           0.000    
      945       169394       41.61           0.000    
      946       169395       15.72           0.000    
      947       169414       3.704           0.000    
      948       169629       297.0           0.000    
      949       169713       42.17           0.000    
      950       169714       14.10           0.000    
      951       169949       266.7           0.000    
      952       170032       42.52           0.000    
      953       170033       12.50           0.000    
      954       170270       21.43           0.000    
      955       170350       24.48           0.000    
      956       170351       42.45           0.000    
      957       170352       10.03           0.000    
      958       170590       222.0           0.000    
      959       170668       19.07           0.000    
      960       170669       40.78           0.000    
      961       170670       17.21           0.000    
      962       170910       224.4           0.000    
      963       170932       185.6           0.000    
      964       170933       194.4           0.000    
      965       170934       137.2           0.000    
      966       170935       272.8           0.000    
      967       170936       119.3           0.000    
      968       170986       14.14           0.000    
      969       170987       39.44           0.000    
      970       170988       21.04           0.000    
      971       171230       188.7           0.000    
      972       171231       29.64           0.000    
      973       171251       264.8           0.000    
      974       171252       97.83           0.000    
      975       171256       153.2           0.000    
      976       171257       268.0           0.000    
      977       171258       99.06           0.000    
      978       171304       9.752           0.000    
      979       171305       38.58           0.000    
      980       171306       24.80           0.000    
      981       171551       215.1           0.000    
      982       171569       73.67           0.000    
      983       171570       260.3           0.000    
      984       171571       8.121           0.000    
      985       171578       157.5           0.000    
      986       171579       233.4           0.000    
      987       171624       41.23           0.000    
      988       171871       214.4           0.000    
      989       171888       148.0           0.000    
      990       171889       176.9           0.000    
      991       171899       45.06           0.000    
      992       171900       247.4           0.000    
      993       171943       22.85           0.000    
      994       171944       14.27           0.000    
      995       172192       169.7           0.000    
      996       172207       217.6           0.000    
      997       172208       93.66           0.000    
      998       172220       14.40           0.000    
      999       172221       232.0           0.000    
     1000       172263       37.44           0.000    
     1001       172512       218.1           0.000    
     1002       172525       54.41           0.000    
     1003       172526       227.7           0.000    
     1004       172527       17.28           0.000    
     1005       172542       193.6           0.000    
     1006       172583       31.55           0.000    
     1007       172832       68.24           0.000    
     1008       172844       177.2           0.000    
     1009       172845       160.6           0.000    
     1010       172863       150.4           0.000    
     1011       172902       37.94           0.000    
     1012       173153       79.10           0.000    
     1013       173162       127.7           0.000    
     1014       173163       196.4           0.000    
     1015       173164       22.82           0.000    
     1016       173184       116.2           0.000    
     1017       173222       37.82           0.000    
     1018       173474       89.31           0.000    
     1019       173480       82.54           0.000    
     1020       173481       194.2           0.000    
     1021       173482       67.47           0.000    
     1022       173505       89.35           0.000    
     1023       173542       10.89           0.000    
     1024       173795       97.98           0.000    
     1025       173796       202.2           0.000    
     1026       173797       177.1           0.000    
     1027       173798       38.56           0.000    
     1028       173799       198.1           0.000    
     1029       173800       112.9           0.000    
     1030       173826       68.62           0.000    
     1031       173827       70.41           0.000    
     1032       173861       36.70           0.000    
     1033       174117       7.893           0.000    
     1034       174118       151.7           0.000    
     1035       174147       51.98           0.000    
     1036       174148       79.91           0.000    
     1037       174181       26.61           0.000    
     1038       174468       38.22           0.000    
     1039       174469       90.50           0.000    
     1040       174500       34.62           0.000    
     1041       174789       25.61           0.000    
     1042       174790       92.75           0.000    
     1043       174791       87.15           0.000    
     1044       174792       86.78           0.000    
     1045       174793       48.18           0.000    
     1046       174820       33.61           0.000    
     1047       175113       36.98           0.000    
     1048       175114       82.67           0.000    
     1049       175115       79.01           0.000    
     1050       175116       74.82           0.000    
     1051       175117       69.80           0.000    
     1052       175118       40.26           0.000    
     1053       175139       26.30           0.000    
     1054       175140       6.367           0.000    
     1055       175438       26.07           0.000    
     1056       175439       60.57           0.000    
     1057       175440       55.60           0.000    
     1058       175441       20.62           0.000    
     1059       175459       31.99           0.000    
     1060       175761       29.36           0.000    
     1061       175762       45.36           0.000    
     1062       175763       42.23           0.000    
     1063       175764       8.085           0.000    
     1064       175779       20.46           0.000    
     1065       176084       30.27           0.000    
     1066       176085       36.20           0.000    
     1067       176086       25.31           0.000    
     1068       176098       31.86           0.000    
     1069       176406       20.15           0.000    
     1070       176407       17.62           0.000    
     1071       176416       18.30           0.000    
     1072       176417       31.70           0.000    
     1073       176418       22.28           0.000    
     1074       176727       36.41           0.000    
     1075       176733       26.58           0.000    
     1076       176734       33.95           0.000    
     1077       176735       33.44           0.000    
     1078       176736       14.21           0.000    
     1079       177048       34.91           0.000    
     1080       177050       10.21           0.000    
     1081       177051       34.96           0.000    
     1082       177052       33.82           0.000    
     1083       177053       7.498           0.000    
     1084       177368       18.99           0.000    
     1085       177369       38.94           0.000    
     1086       177370       25.33           0.000    
     1087       137389       196.3           0.000    
     1088       143152       120.4           0.000    
     1089       143831       16.62           0.000    
     1090       138407       17.94           0.000    
     1091       138411       18.77           0.000    
     1092       138412       18.96           0.000    
     1093       138738       16.96           0.000    
     1094       135884       14.06           0.000    
     1095       135566       13.95           0.000    
     1096       135567       14.08           0.000    
     1097       135248       14.54           0.000    
     1098       135249       14.90           0.000    
     1099       134930       15.60           0.000    
     1100       134931       16.06           0.000    
     1101       134613       17.16           0.000    
     1102       133659       17.90           0.000    
     1103       133977       18.12           0.000    
     1104       128557       19.50           0.000    
     1105       128558       19.39           0.000    
     1106       126974       14.97           0.000    
     1107       128898       17.18           0.000    
     1108       141362       23.94           0.000    
     1109       144885       23.35           0.000    
     1110       145205       23.11           0.000    
     1111       153858       27.14           0.000    
     1112       154178       27.15           0.000    
     1113       155459       28.16           0.000    
     1114       155779       28.67           0.000    
     1115       157700       33.85           0.000    
     1116       185272       61.80           0.000    
     1117       189748       66.15           0.000    
     1118       164988       14.65           0.000    
     1119       164987       14.68           0.000    
     1120       165924       17.40           0.000    
     1121       166242       17.29           0.000    
     1122       171031       19.68           0.000    
     1123       171030       19.35           0.000    
     1124       171029       19.07           0.000    
     1125       171028       18.91           0.000    
     1126       170711       19.63           0.000    
     1127       168443       42.14           0.000    
     1128       168442       42.48           0.000    
     1129       172903       35.61           0.000    
     1130       173862       34.69           0.000    
     1131       174501       32.80           0.000    
     1132       176099       29.78           0.000    
     1133       177689       31.21           0.000    
     1134       173825       101.2           0.000    
     1135       173504       111.9           0.000    
     1136       173183       126.2           0.000    
     1137       172862       144.1           0.000    
     1138       172541       165.0           0.000    
     1139       168349       510.3           0.000    

 WELL NO.  CLN-NODE       STRESS FACTOR         
 -----------------------------------------------
        1            1     -0.1540E+06       0.000    
        2            2     -0.1540E+06       0.000    
        3            3     -0.4838E+05       0.000    
        4            4     -0.2273E+05       0.000    
        5            5     -0.1927E+05       0.000    
        6            6     -0.2791E+05       0.000    

   1145 WELLS

 DRN -- DRAIN PACKAGE, VERSION 7, 5/2/2005 INPUT READ FROM UNIT   13

 DRAIN NO.      NODE         DRAIN EL.  CONDUCTANCE         
 -----------------------------------------------------------
        1           89       273.5          0.1000E+06
        2           90       273.6          0.1000E+06
        3           91       275.9          0.1000E+06
        4           93       275.6          0.1000E+06
        5           94       275.2          0.1000E+06
[...]

 EVT -- EVAPOTRANSPIRATION PACKAGE, VERSION 7, 5/2/2005
         INPUT READ FROM UNIT   20



                         ET SURFACE
 READING ON UNIT   20 WITH FORMAT: (FREE)              

  EVAPOTRANSPIRATION RATE =  5.662000E-03

         EXTINCTION DEPTH =   2.00000    

 RCH -- RECHARGE PACKAGE, VERSION 7, 5/2/2005 INPUT READ FROM UNIT   18



                           RECHARGE
 READING ON UNIT   33 WITH FORMAT: (FREE)              
 -------------------------------------------------------------------------------------
 
 SOLVING FOR HEAD 

 Outer-Iteration  Inner-Iteration  Backtracking  Number of        Incoming       Outgoing  Maximum HeadChange      Maximum Head Change
     Number           Count           Flag       Backtracks       Residual       Residual           Value              Location
        1                             0             0          0.332730E+16     0.332730E+16
        1              169                                                                        -331.035                 21332           GWF-node number
        1              169                                                                        -27.7119                     5           CLN-node number
        2                             0             0          0.625035E+12     0.625035E+12
        2              113                                                                         2734.73                134943           GWF-node number
        2              113                                                                        -11.8210                     1           CLN-node number
        3                             1             3          0.164149E+19     0.617662E+12
        3              106                                                                         390.233                 30931           GWF-node number
        3              106                                                                        -11.7658                     1           CLN-node number
        4                             1             2          0.404789E+18     0.578790E+12
        4               95                                                                         151.698                 21330           GWF-node number
        4               95                                                                        -11.4792                     1           CLN-node number
        5                             1             2          0.140992E+18     0.552222E+12
        5               85                                                                         121.039                 19409           GWF-node number
        5               85                                                                        -11.4437                     1           CLN-node number
        6                             1             2          0.618182E+17     0.512989E+12
        6               85                                                                         92.1310                 19403           GWF-node number
        6               85                                                                        -11.2034                     1           CLN-node number
        7                             1             2          0.381310E+17     0.473826E+12
        7               82                                                                         93.1569                 34439           GWF-node number
        7               82                                                                        -10.9687                     1           CLN-node number
        8                             1             2          0.232480E+17     0.436990E+12
        8               79                                                                         81.5740                 34443           GWF-node number
        8               79                                                                        -10.7388                     1           CLN-node number
        9                             1             2          0.149324E+17     0.402932E+12
        9               85                                                                         78.7658                 34765           GWF-node number
        9               85                                                                        -10.5128                     1           CLN-node number
       10                             1             2          0.777541E+16     0.371472E+12
       10               85                                                                         58.2355                 35406           GWF-node number
       10               85                                                                        -10.5033                     1           CLN-node number
       11                             1             2          0.539317E+16     0.342505E+12
       11               87                                                                         48.6142                 17473           GWF-node number
       11               87                                                                        -10.1264                     1           CLN-node number
       12                             1             2          0.389643E+16     0.316657E+12
       12               89                                                                         40.8301                 38284           GWF-node number
       12               89                                                                        -9.99940                     1           CLN-node number
       13                             1             2          0.296416E+16     0.291916E+12
       13               95                                                                         37.7573                 20035           GWF-node number
       13               95                                                                        -9.80100                     1           CLN-node number
       14                             1             2          0.235147E+16     0.269595E+12
       14               99                                                                         35.4070                 20034           GWF-node number
       14               99                                                                        -9.68035                     1           CLN-node number
       15                             1             2          0.189651E+16     0.248605E+12
       15               99                                                                         28.0042                 21315           GWF-node number
       15               99                                                                        -9.50633                     1           CLN-node number
       16                             1             2          0.157192E+16     0.229260E+12
       16               99                                                                         24.2575                 33482           GWF-node number
       16               99                                                                        -9.35570                     1           CLN-node number
       17                             1             2          0.991374E+15     0.211533E+12
       17               99                                                                         21.9836                 17154           GWF-node number
       17               99                                                                        -9.17597                     1           CLN-node number
       18                             1             1          0.733036E+15     0.173834E+12
       18               99                                                                         15.3494                 27994           GWF-node number
       18               99                                                                        -8.33724                     1           CLN-node number
       19                             1             1          0.122654E+15     0.124944E+12
       19               71                                                                         10.3799                 27995           GWF-node number
       19               71                                                                        -7.83768                     1           CLN-node number
       20                             1             1          0.273884E+14     0.881914E+11
       20               65                                                                         6.71950                145151           GWF-node number
       20               65                                                                        -7.10549                     1           CLN-node number
       21                             1             1          0.371279E+13     0.612127E+11
       21               71                                                                         4.86821                145151           GWF-node number
       21               71                                                                        -6.56613                     1           CLN-node number
       22                             1             1          0.324209E+12     0.418495E+11
       22               71                                                                         3.60617                145789           GWF-node number
       22               71                                                                        -6.12874                     1           CLN-node number
       23                             1             1          0.979878E+11     0.288439E+11
       23               68                                                                         2.69617                145789           GWF-node number
       23               68                                                                        -5.75138                     1           CLN-node number
       24                             1             1          0.339209E+11     0.199556E+11
       24               66                                                                         2.01131                146108           GWF-node number
       24               66                                                                        -5.39606                     1           CLN-node number
       25                             0             0          0.210396E+11     0.210396E+11
       25               42                                                                         1.55880                144699           GWF-node number
       25               42                                                                        0.714950E-01                 1           CLN-node number
       26                             0             0          0.202222E+10     0.202222E+10
       26               29                                                                        0.804363                144699           GWF-node number
       26               29                                                                        0.299930E-01                 1           CLN-node number
       27                             0             0          0.110912E+09     0.110912E+09
       27               29                                                                        0.182910                144699           GWF-node number
       27               29                                                                        0.111195E-01                 1           CLN-node number
       28                             0             0          0.328243E+07     0.328243E+07
       28               29                                                                       -0.437032E-01             60769           GWF-node number
       28               29                                                                        0.243788E-02                 1           CLN-node number
       29                             0             0           62520.2          62520.2    
       29               24                                                                       -0.953871E-01             25119           GWF-node number
       29               24                                                                        0.204802E-03                 1           CLN-node number
       30                             0             0           2000.40          2000.40    
       30                9                                                                       -0.344218E-01             23266           GWF-node number
       30                9                                                                       -0.568306E-04                 5           CLN-node number
       31                             0             0           65.8006          65.8006    
       31                4                                                                       -0.744733E-03            118667           GWF-node number
       31                4                                                                       -0.173488E-04                 5           CLN-node number


    31 CALLS TO SPARSE MATRIX SOLVER PACKAGE  IN FLOW TIME STEP       1 STRESS PERIOD       1

 TOTAL OF      31OUTER ITERATIONS
  MAXIMUM CHANGE FOR EACH ITERATION:
   MAX. CHANGE        NODE  MAX. CHANGE        NODE  MAX. CHANGE        NODE  MAX. CHANGE        NODE  MAX. CHANGE        NODE
 ------------------------------------------------------------------------------------------------------------------------------------
   -331.03    ,      21332   2734.7    ,     134943   390.23    ,      30931   151.70    ,      21330   121.04    ,      19409
    92.131    ,      19403   93.157    ,      34439   81.574    ,      34443   78.766    ,      34765   58.235    ,      35406
    48.614    ,      17473   40.830    ,      38284   37.757    ,      20035   35.407    ,      20034   28.004    ,      21315
    24.257    ,      33482   21.984    ,      17154   15.349    ,      27994   10.380    ,      27995   6.7195    ,     145151
    4.8682    ,     145151   3.6062    ,     145789   2.6962    ,     145789   2.0113    ,     146108   1.5588    ,     144699
   0.80436    ,     144699  0.18291    ,     144699 -0.43703E-01,      60769 -0.95387E-01,      25119 -0.34422E-01,      23266
  -0.74473E-03,     118667

  MAXIMUM CHANGE FOR CLN NODE AT EACH ITERATION:
   MAX. CHANGE    CLN-CELL  MAX. CHANGE    CLN-CELL  MAX. CHANGE    CLN-CELL  MAX. CHANGE    CLN-CELL  MAX. CHANGE    CLN-CELL
 ------------------------------------------------------------------------------------------------------------------------------------
   -27.712    ,          5  -11.821    ,          1  -11.766    ,          1  -11.479    ,          1  -11.444    ,          1
   -11.203    ,          1  -10.969    ,          1  -10.739    ,          1  -10.513    ,          1  -10.503    ,          1
   -10.126    ,          1  -9.9994    ,          1  -9.8010    ,          1  -9.6804    ,          1  -9.5063    ,          1
   -9.3557    ,          1  -9.1760    ,          1  -8.3372    ,          1  -7.8377    ,          1  -7.1055    ,          1
   -6.5661    ,          1  -6.1287    ,          1  -5.7514    ,          1  -5.3961    ,          1  0.71495E-01,          1
   0.29993E-01,          1  0.11120E-01,          1  0.24379E-02,          1  0.20480E-03,          1 -0.56831E-04,          5
  -0.17349E-04,          5

 OUTPUT CONTROL FOR STRESS PERIOD        1   TIME STEP        1
    SAVE HEAD FOR ALL LAYERS
    SAVE BUDGET
 UBDSV2U SAVING "   CONSTANT HEAD" ON UNIT  50 AT TIME STEP      1, STRESS PERIOD      1
 UBDSV1U SAVING "   FLOW JA FACE " ON UNIT  50 AT TIME STEP      1, STRESS PERIOD      1
 UBDSV2U SAVING "             CLN" ON UNIT  50 AT TIME STEP      1, STRESS PERIOD      1
 UBDSV2U SAVING "  CLN CONST HEAD" ON UNIT 144 AT TIME STEP      1, STRESS PERIOD      1
 UBDSV1U SAVING "   FLOW CLN FACE" ON UNIT 144 AT TIME STEP      1, STRESS PERIOD      1
 UBDSV2U SAVING "             GWF" ON UNIT 144 AT TIME STEP      1, STRESS PERIOD      1
 UBDSV4U SAVING "           WELLS" ON UNIT  50 AT TIME STEP      1, STRESS PERIOD      1
 UBDSV4U SAVING "           WELLS" ON UNIT 144 AT TIME STEP      1, STRESS PERIOD      1
 UBDSV4U SAVING "          DRAINS" ON UNIT  50 AT TIME STEP      1, STRESS PERIOD      1
 UBDSV4U SAVING "          DRAINS" ON UNIT 144 AT TIME STEP      1, STRESS PERIOD      1
 UBDSV4U SAVING "   RIVER LEAKAGE" ON UNIT  50 AT TIME STEP      1, STRESS PERIOD      1
 UBDSV4U SAVING "   RIVER LEAKAGE" ON UNIT 144 AT TIME STEP      1, STRESS PERIOD      1
 UBDSV3U SAVING "              ET" ON UNIT  50 AT TIME STEP      1, STRESS PERIOD      1
 UBDSV3U SAVING "        RECHARGE" ON UNIT  50 AT TIME STEP      1, STRESS PERIOD      1

 HEAD WILL BE SAVED ON UNIT       30 AT END OF TIME STEP        1, STRESS PERIOD        1
1
  VOLUMETRIC BUDGET FOR ENTIRE MODEL AT END OF TIME STEP       1 IN STRESS PERIOD       1
  ---------------------------------------------------------------------------------------

     CUMULATIVE VOLUMES      L**3       RATES FOR THIS TIME STEP      L**3/T
     ------------------                 ------------------------

           IN:                                      IN:
           ---                                      ---
             STORAGE =           0.0000               STORAGE =           0.0000
         CLN STORAGE =           0.0000           CLN STORAGE =           0.0000
       CONSTANT HEAD =           0.0000         CONSTANT HEAD =           0.0000
      CLN CONST HEAD =           0.0000        CLN CONST HEAD =           0.0000
               WELLS =     1718740.7793                 WELLS =      171874.0781
              DRAINS =           0.0000                DRAINS =           0.0000
       RIVER LEAKAGE =    11003462.5000         RIVER LEAKAGE =     1100346.2500
                  ET =           0.0000                    ET =           0.0000
            RECHARGE =     2507685.6250              RECHARGE =      250768.5625

            TOTAL IN =    15229888.9043              TOTAL IN =     1522988.8906

          OUT:                                     OUT:
          ----                                     ----
             STORAGE =           0.0000               STORAGE =           0.0000
         CLN STORAGE =           0.0000           CLN STORAGE =           0.0000
       CONSTANT HEAD =           0.0000         CONSTANT HEAD =           0.0000
      CLN CONST HEAD =           0.0000        CLN CONST HEAD =           0.0000
               WELLS =     4168732.6144                 WELLS =      416873.2500
              DRAINS =      328892.0237                DRAINS =       32889.2024
       RIVER LEAKAGE =    10391140.6250         RIVER LEAKAGE =     1039114.0625
                  ET =      341125.4688                    ET =       34112.5469
            RECHARGE =           0.0000              RECHARGE =           0.0000

           TOTAL OUT =    15229890.7319             TOTAL OUT =     1522989.0617

            IN - OUT =          -1.8276              IN - OUT =          -0.1711

 PERCENT DISCREPANCY =          -0.00     PERCENT DISCREPANCY =          -0.00






          TIME SUMMARY AT END OF TIME STEP         1 IN STRESS PERIOD         1
                    SECONDS     MINUTES      HOURS       DAYS        YEARS
                    -----------------------------------------------------------
   TIME STEP LENGTH 8.64000E+05  14400.      240.00      10.000     2.73785E-02
 STRESS PERIOD TIME 8.64000E+05  14400.      240.00      10.000     2.73785E-02
         TOTAL TIME 8.64000E+05  14400.      240.00      10.000     2.73785E-02
1

 Run end date and time (yyyy/mm/dd hh:mm:ss): 2021/06/07  8:46:05
 Elapsed run time: 17.959 Seconds

