                                   MODFLOW 6
                U.S. GEOLOGICAL SURVEY MODULAR HYDROLOGIC MODEL
                          GROUNDWATER FLOW MODEL (GWF)
                            VERSION 6.2.0 10/22/2020

   MODFLOW 6 compiled Oct 22 2020 09:26:42 with IFORT compiler (ver. 19.10.2)

This software has been approved for release by the U.S. Geological 
Survey (USGS). Although the software has been subjected to rigorous 
review, the USGS reserves the right to update the software as needed 
pursuant to further analysis and review. No warranty, expressed or 
implied, is made by the USGS or the U.S. Government as to the 
functionality of the software and related material nor shall the 
fact of release constitute any such warranty. Furthermore, the 
software is released on condition that neither the USGS nor the U.S. 
Government shall be held liable for any damages resulting from its 
authorized or unauthorized use. Also refer to the USGS Water 
Resources Software User Rights Notice for complete use, copyright, 
and distribution information.


System command used to initiate simulation:
mf6  mfsim.nam

MODFLOW was compiled using uniform precision.

Real Variables
  KIND: 8
  TINY (smallest non-zero value):    2.225074-308
  HUGE (largest value):    1.797693+308
  PRECISION: 15
  BIT SIZE: 64

Integer Variables
  KIND: 4
  HUGE (largest value): 2147483647
  BIT SIZE: 32

Long Integer Variables
  KIND: 8
  HUGE (largest value): 9223372036854775807
  BIT SIZE: 64

Logical Variables
  KIND: 4
  BIT SIZE: 32
 

 OPENED model.disv
 FILE TYPE:DISV6                  UNIT 1005   STATUS:OLD                 
 FORMAT:FORMATTED              ACCESS:SEQUENTIAL          
 ACTION:READ                


 OPENED model.sto
 FILE TYPE:STO6                   UNIT 1006   STATUS:OLD                 
 FORMAT:FORMATTED              ACCESS:SEQUENTIAL          
 ACTION:READ                


 OPENED model.npf
 FILE TYPE:NPF6                   UNIT 1007   STATUS:OLD                 
 FORMAT:FORMATTED              ACCESS:SEQUENTIAL          
 ACTION:READ                


 OPENED model.ic
 FILE TYPE:IC6                    UNIT 1008   STATUS:OLD                 
 FORMAT:FORMATTED              ACCESS:SEQUENTIAL          
 ACTION:READ                


 OPENED model.lu1.rch
 FILE TYPE:RCH6                   UNIT 1009   STATUS:OLD                 
 FORMAT:FORMATTED              ACCESS:SEQUENTIAL          
 ACTION:READ                


 OPENED model.lu2.rch
 FILE TYPE:RCH6                   UNIT 1010   STATUS:OLD                 
 FORMAT:FORMATTED              ACCESS:SEQUENTIAL          
 ACTION:READ                


 OPENED model.lu3.rch
 FILE TYPE:RCH6                   UNIT 1011   STATUS:OLD                 
 FORMAT:FORMATTED              ACCESS:SEQUENTIAL          
 ACTION:READ                


 OPENED model.evt
 FILE TYPE:EVT6                   UNIT 1012   STATUS:OLD                 
 FORMAT:FORMATTED              ACCESS:SEQUENTIAL          
 ACTION:READ                


 OPENED model.chd
 FILE TYPE:CHD6                   UNIT 1013   STATUS:OLD                 
 FORMAT:FORMATTED              ACCESS:SEQUENTIAL          
 ACTION:READ                


 OPENED model.ghb
 FILE TYPE:GHB6                   UNIT 1014   STATUS:OLD                 
 FORMAT:FORMATTED              ACCESS:SEQUENTIAL          
 ACTION:READ                


 OPENED model.riv
 FILE TYPE:RIV6                   UNIT 1015   STATUS:OLD                 
 FORMAT:FORMATTED              ACCESS:SEQUENTIAL          
 ACTION:READ                


 OPENED model.surf.drn
 FILE TYPE:DRN6                   UNIT 1016   STATUS:OLD                 
 FORMAT:FORMATTED              ACCESS:SEQUENTIAL          
 ACTION:READ                


 OPENED model.wel
 FILE TYPE:WEL6                   UNIT 1017   STATUS:OLD                 
 FORMAT:FORMATTED              ACCESS:SEQUENTIAL          
 ACTION:READ                


 OPENED model.obs
 FILE TYPE:OBS6                   UNIT 1018   STATUS:OLD                 
 FORMAT:FORMATTED              ACCESS:SEQUENTIAL          
 ACTION:READ                


 OPENED model.oc
 FILE TYPE:OC6                    UNIT 1019   STATUS:OLD                 
 FORMAT:FORMATTED              ACCESS:SEQUENTIAL          
 ACTION:READ                


 DISV -- VERTEX GRID DISCRETIZATION PACKAGE, VERSION 1 : 12/23/2015 - INPUT READ FROM UNIT 1005


 # File generated by Flopy version 3.3.3 on 04/14/2021 at 16:24:13.

 PROCESSING DISCRETIZATION OPTIONS
   MODEL LENGTH UNIT IS UNDEFINED
 END OF DISCRETIZATION OPTIONS

 PROCESSING DISCRETIZATION DIMENSIONS
   NLAY = 3
   NCPL = 4307
   NVERT = 5182
 END OF DISCRETIZATION DIMENSIONS

 PROCESSING GRIDDATA

   MODEL LAYER BOTTOM EL. =   80.00000     FOR LAYER 1

   MODEL LAYER BOTTOM EL. =   70.00000     FOR LAYER 2

   MODEL LAYER BOTTOM EL. =   0.000000     FOR LAYER 3

                  IDOMAIN FOR LAYER 1
      1 1 1 1 1 1 1 1 1 1 1 1 1 1 1 1 1 1 1 1 1 1 1 1 1 1 1 1 1 1 1 1 1 1 1 1 1 1 1 1 1 1 1 1 1 1 1 1 1 1 1 1 1 1 1 1 1 1 1 1
      1 1 1 1 1 1 1 1 1 1 1 1 1 1 1 1 1 1 1 1 1 1 1 1 1 1 1 1 1 1 1 1 1 1 1 1 1 1 1 1 1 1 1 1 1 1 1 1 1 1 1 1 1 1 1 1 1 1 1 1
      1 1 1 1 1 1 1 1 1 1 1 1 1 1 1 1 1 1 1 1 1 1 1 1 1 1 1 1 1 1 1 1 1 1 1 1 1 1 1 1 1 1 1 1 1 1 1 1 1 1 1 1 1 1 1 1 1 1 1 1
      1 1 1 1 1 1 1 1 1 1 1 1 1 1 1 1 1 1 1 1 1 1 1 1 1 1 1 1 1 1 1 1 1 1 1 1 1 1 1 1 1 1 1 1 1 1 1 1 1 1 1 1 1 1 1 1 1 1 1 1
      1 1 1 1 1 1 1 1 1 1 1 1 1 1 1 1 1 1 1 1 1 1 1 1 1 1 1 1 1 1 1 1 1 1 1 1 1 1 1 1 1 1 1 1 1 1 1 1 1 1 1 1 1 1 1 1 1 1 1 1
      1 1 1 1 1 1 1 1 1 1 1 1 1 1 1 1 1 1 1 1 1 1 1 1 1 1 1 1 1 1 1 1 1 1 1 1 1 1 1 1 1 1 1 1 1 1 1 1 1 1 1 1 1 1 1 1 1 1 1 1
      1 1 1 1 1 1 1 1 1 1 1 1 1 1 1 1 1 1 1 1 1 1 1 1 1 1 1 1 1 1 1 1 1 1 1 1 1 1 1 1 1 1 1 1 1 1 1 1 1 1 1 1 1 1 1 1 1 1 1 1
      1 1 1 1 1 1 1 1 1 1 1 1 1 1 1 1 1 1 1 1 1 1 1 1 1 1 1 1 1 1 1 1 1 1 1 1 1 1 1 1 1 1 1 1 1 1 1 1 1 1 1 1 1 1 1 1 1 1 1 1
      1 1 1 1 1 1 1 1 1 1 1 1 1 1 1 1 1 1 1 1 1 1 1 1 1 1 1 1 1 1 1 1 1 1 1 1 1 1 1 1 1 1 1 1 1 1 1 1 1 1 1 1 1 1 1 1 1 1 1 1
      1 1 1 1 1 1 1 1 1 1 1 1 1 1 1 1 1 1 1 1 1 1 1 1 1 1 1 1 1 1 1 1 1 1 1 1 1 1 1 1 1 1 1 1 1 1 1 1 1 1 1 1 1 1 1 1 1 1 1 1
      1 1 1 1 1 1 1 1 1 1 1 1 1 1 1 1 1 1 1 1 1 1 1 1 1 1 1 1 1 1 1 1 1 1 1 1 1 1 1 1 1 1 1 1 1 1 1 1 1 1 1 1 1 1 1 1 1 1 1 1
      1 1 1 1 1 1 1 1 1 1 1 1 1 1 1 1 1 1 1 1 1 1 1 1 1 1 1 1 1 1 1 1 1 1 1 1 1 1 1 1 1 1 1 1 1 1 1 1 1 1 1 1 1 1 1 1 1 1 1 1
      1 1 1 1 1 1 1 1 1 1 1 1 1 1 1 1 1 1 1 1 1 1 1 1 1 1 1 1 1 1 1 1 1 1 1 4 4 1 1 1 1 1 1 1 1 1 1 1 1 1 1 1 1 1 1 1 1 1 1 1
      1 1 1 1 1 1 1 1 1 1 1 1 1 1 1 1 1 1 1 1 1 1 1 1 1 1 1 1 1 1 1 1 1 1 1 1 1 4 4 1 1 1 1 1 1 1 1 1 1 1 1 1 1 1 1 1 1 1 1 1
      1 1 1 1 1 1 1 1 1 1 1 1 1 1 1 1 1 1 1 1 1 1 1 1 1 1 1 1 1 1 1 1 4 4 1 1 1 1 1 1 1 1 1 1 1 1 4 1 4 4 4 4 4 1 1 1 1 1 1 1
      1 1 1 1 1 1 1 1 1 1 1 1 1 1 1 1 1 1 1 1 1 1 1 1 1 1 1 1 1 1 1 1 1 1 1 1 1 1 4 4 4 1 1 1 1 1 1 1 1 1 1 1 1 1 1 1 1 1 1 1
      1 4 1 1 4 4 4 4 1 1 1 1 1 1 1 1 1 1 1 1 1 1 1 1 1 1 1 1 1 1 1 1 1 1 1 1 1 1 1 1 1 1 1 1 1 1 1 1 1 1 1 1 1 4 4 4 4 4 4 1
      4 4 4 4 4 4 4 4 4 4 4 4 4 4 4 4 4 4 4 4 4 4 4 4 4 1 4 4 4 4 4 4 4 4 4 4 4 4 4 4 4 4 4 4 4 4 4 4 1 1 1 4 1 1 1 1 4 4 4 4
      4 1 1 1 1 4 4 1 4 4 4 4 4 1 4 4 1 4 4 4 4 4 4 4 4 4 4 4 1 1 1 1 4 4 1 1 4 4 1 1 1 1 4 4 1 1 4 1 1 1 1 1 1 1 1 4 4 4 4 1
      1 1 4 4 4 1 1 1 1 1 1 1 1 1 1 1 1 1 1 1 1 1 1 1 1 1 1 1 1 1 1 1 1 1 1 1 1 1 1 1 1 1 1 1 1 1 1 1 1 1 1 1 1 1 1 1 1 1 1 1
      4 4 4 4 4 1 1 1 1 4 4 4 4 4 4 4 4 4 4 4 4 4 4 4 4 4 4 4 4 1 1 4 4 4 4 4 4 4 4 4 4 4 4 4 4 4 4 4 4 4 4 4 4 4 4 4 4 4 4 4
      4 4 4 4 4 4 1 4 4 1 4 4 4 4 4 1 1 4 4 1 1 4 4 1 1 4 4 1 4 4 4 4 4 4 4 4 4 4 4 4 4 4 4 4 4 4 4 4 4 4 4 4 4 4 4 4 4 4 1 4
      4 1 1 1 4 4 4 4 1 1 4 1 1 1 1 1 1 1 1 1 1 1 1 1 1 1 1 1 1 1 1 1 1 1 1 1 1 1 1 1 1 1 1 1 1 4 4 4 4 4 4 4 4 1 4 4 4 4 4 4
      4 4 4 4 4 4 4 4 4 4 4 4 4 4 4 4 4 4 4 4 4 4 4 4 4 4 4 4 4 4 4 4 4 4 4 4 4 4 4 4 4 4 4 4 4 4 4 4 4 4 4 4 4 4 4 4 4 4 4 4
      4 4 4 4 4 4 4 4 4 4 4 4 4 4 4 4 4 4 4 4 4 4 4 4 4 4 4 4 4 4 4 4 4 4 4 4 4 4 4 4 4 4 4 4 4 4 4 4 4 4 4 4 4 4 4 4 4 4 4 4
      4 4 4 4 4 4 4 4 4 4 4 4 4 4 4 4 4 4 4 4 4 4 4 4 4 4 4 4 4 4 4 4 4 4 4 4 4 4 4 4 4 4 4 4 4 4 4 4 4 4 4 4 4 4 4 4 4 4 4 4
      4 4 4 4 4 4 4 4 4 4 4 4 4 4 4 4 4 4 4 4 4 4 4 4 4 4 4 4 4 4 4 4 4 4 4 4 4 4 4 4 4 4 4 4 4 4 4 4 4 4 4 4 4 4 4 4 4 4 4 4
      4 4 4 4 4 4 4 4 4 4 4 4 4 4 4 4 4 4 4 4 4 4 4 4 4 4 4 4 4 4 4 4 4 4 4 4 4 4 4 4 4 4 4 4 4 4 4 4 4 4 1 1 4 4 1 1 1 1 1 4
      4 4 4 4 4 4 4 4 4 4 1 1 1 1 1 1 1 1 1 1 4 4 1 1 1 1 1 1 1 1 1 1 4 4 1 1 4 4 4 4 4 4 4 4 4 4 4 4 4 4 4 4 4 4 4 4 4 4 4 4
      4 4 4 4 4 4 4 4 4 4 4 4 4 4 4 4 4 4 4 4 4 4 4 4 4 4 4 4 4 4 4 4 4 4 4 4 4 4 4 4 4 4 4 4 4 4 4 4 4 4 4 4 4 4 4 4 4 4 4 4
      4 4 4 4 4 4 4 4 4 4 4 4 4 4 4 4 4 4 4 4 4 4 4 4 4 4 4 4 4 4 4 4 4 4 4 4 4 4 4 4 4 4 4 4 4 4 4 4 4 4 4 4 4 4 4 4 4 4 4 4
      4 4 4 4 4 4 4 4 4 4 4 4 4 4 4 4 4 4 4 4 4 4 4 4 4 4 4 4 4 4 4 4 4 4 4 4 4 4 4 4 4 4 4 4 4 4 4 4 4 4 4 4 4 4 4 4 4 4 4 4
      4 4 4 4 4 4 4 4 4 4 4 4 4 4 4 4 4 4 4 4 4 4 4 4 4 4 4 4 4 4 4 4 4 4 4 4 4 4 4 4 4 4 4 4 4 4 4 4 4 4 4 4 4 4 4 4 4 4 4 4
      4 4 4 4 4 4 4 4 4 4 4 4 4 4 4 4 4 4 4 4 4 4 4 4 4 4 4 4 4 4 4 4 4 4 4 4 4 4 4 4 4 4 4 4 4 4 4 1 1 1 4 1 1 1 4 4 1 1 1 1
      1 1 1 1 1 1 1 1 1 1 1 1 1 1 4 4 4 4 4 4 4 4 4 4 4 4 4 4 4 4 4 4 4 4 4 4 4 4 4 4 4 4 4 4 4 4 4 4 4 4 4 4 4 4 4 4 4 4 4 4
      4 4 4 4 4 4 4 4 4 4 4 4 4 4 4 4 4 4 4 4 4 4 4 4 4 4 4 4 4 4 4 4 4 4 4 4 4 4 4 4 4 4 4 4 4 4 4 4 4 4 4 4 4 4 4 4 4 4 4 4
      4 4 4 4 4 4 4 4 4 4 4 4 4 4 4 4 4 4 4 4 4 4 4 4 4 4 4 4 4 4 4 4 4 4 4 4 4 4 4 4 4 4 4 4 4 4 4 4 4 4 4 4 4 4 4 4 4 4 4 4
      4 4 4 4 4 4 4 4 4 4 4 4 4 4 4 4 4 4 4 4 4 4 4 4 4 4 4 4 4 4 4 4 4 4 4 4 4 4 4 4 4 4 4 4 4 4 4 4 4 4 4 4 4 4 4 4 4 4 4 4
      4 4 4 4 4 4 4 4 4 4 4 4 4 4 4 4 4 4 4 4 4 4 4 4 4 4 4 4 4 4 4 4 4 4 4 4 4 4 4 4 4 4 4 4 4 4 4 4 4 4 4 4 4 4 4 4 4 4 4 4
      4 4 4 4 4 4 4 4 4 4 4 4 4 4 4 4 4 4 4 4 4 4 4 4 4 4 4 4 4 4 4 4 4 4 4 4 4 4 4 4 4 4 4 4 4 4 4 4 4 4 4 4 4 4 4 4 4 4 4 4
      4 4 4 4 4 4 4 4 4 4 4 4 4 4 4 4 4 4 4 4 4 4 4 4 4 4 4 4 4 4 4 4 4 4 4 4 4 4 4 4 4 4 4 4 4 4 4 4 4 4 4 4 4 4 4 4 4 4 4 4
      4 4 4 1 4 1 4 4 1 1 1 1 1 1 1 1 1 4 1 1 4 4 1 4 4 4 4 4 4 4 4 4 4 4 4 4 4 1 1 4 4 1 1 4 4 4 4 4 4 4 4 4 4 4 4 4 4 4 4 4
      4 4 4 4 4 4 4 4 1 1 4 4 1 1 4 4 4 4 4 4 4 4 4 4 4 4 4 4 4 4 4 4 4 4 1 1 1 1 4 4 1 1 4 1 4 4 4 4 4 4 4 4 1 1 4 4 4 4 4 4
      4 4 1 4 1 1 1 1 1 4 4 4 4 4 4 4 4 4 4 4 4 4 4 4 4 4 4 4 4 4 4 4 4 4 4 4 4 4 4 4 4 4 4 4 4 4 4 4 4 4 4 4 4 4 4 1 4 4 4 4
      4 4 4 4 1 1 4 4 4 4 4 1 1 4 4 1 4 4 4 4 4 4 4 4 4 4 4 4 4 4 4 4 4 4 4 4 4 4 4 4 4 4 4 4 4 4 4 4 4 4 4 4 4 4 4 4 4 4 4 4
      4 4 4 4 4 4 4 4 4 4 4 4 4 4 4 4 4 4 4 4 4 4 4 4 4 4 4 4 4 4 4 4 4 4 4 4 4 4 4 4 4 4 4 4 4 4 4 4 4 4 4 4 4 4 4 4 4 4 4 4
      4 4 4 4 4 4 4 4 4 4 4 4 4 4 4 4 4 4 4 4 4 4 4 4 4 4 4 4 4 4 4 4 4 4 4 4 4 4 4 4 4 4 4 4 4 4 4 4 4 4 4 4 4 4 4 4 4 4 4 4
      4 4 4 4 4 4 4 4 4 4 4 4 4 4 4 4 4 4 4 4 4 4 4 4 4 4 4 4 4 4 1 1 4 4 1 1 4 4 4 4 4 4 4 4 4 4 4 4 4 4 4 4 4 4 4 4 4 4 4 4
      4 4 4 4 4 4 4 4 4 4 4 4 4 4 4 1 4 4 4 4 4 4 4 4 4 4 1 1 4 4 1 1 1 1 4 4 4 4 4 4 4 4 4 4 4 4 4 4 4 4 4 4 4 4 1 1 1 4 1 1
      4 4 4 4 4 4 4 4 4 4 4 4 4 4 4 4 4 4 4 4 4 4 1 1 4 4 1 1 4 4 4 4 4 4 4 4 4 4 4 4 4 4 4 4 4 4 4 4 4 4 1 1 4 4 1 1 4 1 4 4
      4 4 4 4 4 4 4 4 4 4 4 4 4 4 4 4 4 4 4 4 4 1 4 4 4 4 4 4 4 4 4 4 4 4 4 4 4 4 4 4 4 1 4 1 4 4 4 1 1 4 1 1 1 1 1 1 1 1 1 1
      1 1 1 1 1 4 1 1 4 4 1 1 1 1 4 4 1 1 4 4 4 4 4 1 1 1 1 4 4 4 4 4 4 4 4 4 4 4 4 4 4 4 4 4 4 4 4 1 4 4 4 4 4 4 4 4 4 4 4 4
      4 4 4 4 4 4 4 4 4 4 4 4 4 4 1 1 4 4 1 1 4 4 4 4 4 4 4 4 4 4 4 4 4 4 4 4 4 4 4 1 4 4 4 4 4 4 4 4 4 4 4 4 4 4 4 4 4 4 4 4
      4 4 4 4 4 4 4 4 4 4 4 4 4 4 4 4 4 4 4 4 4 4 4 4 4 4 4 4 4 4 4 4 4 4 4 4 4 4 4 4 4 4 4 4 4 4 4 4 4 4 4 4 4 4 4 4 4 4 4 4
      4 4 4 4 4 4 4 4 4 4 4 4 4 4 4 4 4 4 4 4 4 4 4 4 4 4 4 4 4 4 4 4 4 4 4 4 4 4 4 4 4 4 4 4 4 4 4 4 4 4 4 4 4 4 4 4 4 4 1 1
      1 4 4 4 4 4 4 4 4 4 4 4 4 4 4 4 4 4 4 4 4 4 4 4 1 1 1 4 4 4 1 1 4 1 1 1 1 1 1 4 4 4 4 4 4 1 1 1 1 1 1 1 1 1 1 1 1 1 1 1
      1 1 1 1 1 1 4 4 1 1 4 4 1 1 4 4 4 4 4 4 4 4 4 1 1 1 1 1 1 1 4 4 4 4 4 4 1 1 1 1 1 4 4 4 4 4 1 1 1 1 1 1 1 1 1 4 4 1 1 1
      1 1 1 1 1 1 1 1 1 4 4 4 4 4 1 1 1 1 1 1 1 1 1 1 1 1 1 1 1 1 1 1 1 1 1 1 1 1 1 1 1 1 1 1 1 1 1 1 1 1 1 1 1 1 1 1 1 1 1 1
      1 1 4 4 4 1 1 1 1 1 1 1 1 1 1 1 1 1 1 1 1 1 1 1 1 1 1 1 1 1 1 1 1 1 1 1 1 1 1 1 1 1 1 1 1 1 1 1 1 1 1 1 1 1 1 1 1 1 1 4
      1 1 1 1 1 1 1 1 1 1 1 1 1 1 1 1 1 1 1 1 1 1 1 1 1 1 1 1 1 1 1 1 1 1 1 1 1 1 1 1 1 1 1 1 1 1 1 1 1 1 1 1 1 1 1 1 1 1 1 1
      1 1 1 1 1 1 1 1 1 1 1 1 1 1 1 1 1 1 1 1 1 1 1 1 1 1 1 1 1 1 1 1 1 1 1 1 1 1 1 1 1 1 1 1 1 1 1 1 1 1 1 1 1 1 1 1 1 1 1 1
      1 1 1 1 1 1 1 1 1 1 1 1 1 1 1 1 1 1 1 1 1 1 1 1 1 1 1 1 1 1 1 1 1 1 1 1 1 1 1 1 1 1 1 1 1 1 1 1 1 1 1 1 1 1 1 1 1 1 1 1
      1 1 1 1 1 1 1 1 1 1 1 1 1 1 1 1 1 1 1 1 1 1 1 1 1 1 1 1 1 1 1 1 1 1 1 1 1 1 1 1 1 1 1 1 1 1 1 1 1 1 1 1 1 1 1 1 1 1 1 1
      1 1 1 1 1 1 1 1 1 1 1 1 1 1 1 1 1 1 1 1 1 1 1 1 1 1 1 1 1 1 1 1 1 1 1 1 1 1 1 1 1 1 1 1 1 1 1 1 1 1 1 1 1 1 1 1 1 1 1 1
      1 1 1 1 1 1 1 1 1 1 1 1 1 1 1 1 1 1 1 1 1 1 1 1 1 1 1 1 1 1 1 1 1 1 1 1 1 1 1 1 1 1 1 1 1 1 1 1 1 1 1 1 1 1 1 1 1 1 1 1
      1 1 1 1 1 1 1 1 1 1 1 1 1 1 1 1 1 1 1 1 1 1 1 1 1 1 1 1 1 1 1 1 1 1 1 1 1 1 1 1 1 1 1 1 1 1 1 1 1 1 1 1 1 1 1 1 1 1 1 1
      1 1 1 1 1 1 1 1 1 1 1 1 1 1 1 1 1 1 1 1 1 1 1 1 1 1 1 1 1 1 1 1 1 1 1 1 1 1 1 1 1 1 1 1 1 1 1 1 1 1 1 1 1 1 1 1 1 1 1 1
      1 1 1 1 1 1 1 1 1 1 1 1 1 1 1 1 1 1 1 1 1 1 1 1 1 1 1 1 1 1 1 1 1 1 1 1 1 1 1 1 1 1 1 1 1 1 1 1 1 1 1 1 1 1 1 1 1 1 1 1
      1 1 1 1 1 1 1 1 1 1 1 1 1 1 1 1 1 1 1 1 1 1 1 1 1 1 1 1 1 1 1 1 1 1 1 1 1 1 1 1 1 1 1 1 1 1 1 1 1 1 1 1 1 1 1 1 1 1 1 1
      1 1 1 1 1 1 1 1 1 1 1 1 1 1 1 1 1 1 1 1 1 1 1 1 1 1 1 1 1 1 1 1 1 1 1 1 1 1 1 1 1 1 1 1 1 1 1 1 1 1 1 1 1 1 1 1 1 1 1 1
      1 1 1 1 1 1 1 1 1 1 1 1 1 1 1 1 1 1 1 1 1 1 1 1 1 1 1 1 1 1 1 1 1 1 1 1 1 1 1 1 1 1 1 1 1 1 1 1 1 1 1 1 1 1 1 1 1 1 1 1
      1 1 1 1 1 1 1 1 1 1 1 1 1 1 1 1 1 1 1 1 1 1 1 1 1 1 1 1 1 1 1 1 1 1 1 1 1 1 1 1 1 1 1 1 1 1 1

                  IDOMAIN FOR LAYER 2
      2 2 2 2 2 2 2 2 2 2 2 2 2 2 2 2 2 2 2 2 2 2 2 2 2 2 2 2 2 2 2 2 2 2 2 2 2 2 2 2 2 2 2 2 2 2 2 2 2 2 2 2 2 2 2 2 2 2 2 2
      2 2 2 2 2 2 2 2 2 2 2 2 2 2 2 2 2 2 2 2 2 2 2 2 2 2 2 2 2 2 2 2 2 2 2 2 2 2 2 2 2 2 2 2 2 2 2 2 2 2 2 2 2 2 2 2 2 2 2 2
      2 2 2 2 2 2 2 2 2 2 2 2 2 2 2 2 2 2 2 2 2 2 2 2 2 2 2 2 2 2 2 2 2 2 2 2 2 2 2 2 2 2 2 2 2 2 2 2 2 2 2 2 2 2 2 2 2 2 2 2
      2 2 2 2 2 2 2 2 2 2 2 2 2 2 2 2 2 2 2 2 2 2 2 2 2 2 2 2 2 2 2 2 2 2 2 2 2 2 2 2 2 2 2 2 2 2 2 2 2 2 2 2 2 2 2 2 2 2 2 2
      2 2 2 2 2 2 2 2 2 2 2 2 2 2 2 2 2 2 2 2 2 2 2 2 2 2 2 2 2 2 2 2 2 2 2 2 2 2 2 2 2 2 2 2 2 2 2 2 2 2 2 2 2 2 2 2 2 2 2 2
      2 2 2 2 2 2 2 2 2 2 2 2 2 2 2 2 2 2 2 2 2 2 2 2 2 2 2 2 2 2 2 2 2 2 2 2 2 2 2 2 2 2 2 2 2 2 2 2 2 2 2 2 2 2 2 2 2 2 2 2
      2 2 2 2 2 2 2 2 2 2 2 2 2 2 2 2 2 2 2 2 2 2 2 2 2 2 2 2 2 2 2 2 2 2 2 2 2 2 2 2 2 2 2 2 2 2 2 2 2 2 2 2 2 2 2 2 2 2 2 2
      2 2 2 2 2 2 2 2 2 2 2 2 2 2 2 2 2 2 2 2 2 2 2 2 2 2 2 2 2 2 2 2 2 2 2 2 2 2 2 2 2 2 2 2 2 2 2 2 2 2 2 2 2 2 2 2 2 2 2 2
      2 2 2 2 2 2 2 2 2 2 2 2 2 2 2 2 2 2 2 2 2 2 2 2 2 2 2 2 2 2 2 2 2 2 2 2 2 2 2 2 2 2 2 2 2 2 2 2 2 2 2 2 2 2 2 2 2 2 2 2
      2 2 2 2 2 2 2 2 2 2 2 2 2 2 2 2 2 2 2 2 2 2 2 2 2 2 2 2 2 2 2 2 2 2 2 2 2 2 2 2 2 2 2 2 2 2 2 2 2 2 2 2 2 2 2 2 2 2 2 2
      2 2 2 2 2 2 2 2 2 2 2 2 2 2 2 2 2 2 2 2 2 2 2 2 2 2 2 2 2 2 2 2 2 2 2 2 2 2 2 2 2 2 2 2 2 2 2 2 2 2 2 2 2 2 2 2 2 2 2 2
      2 2 2 2 2 2 2 2 2 2 2 2 2 2 2 2 2 2 2 2 2 2 2 2 2 2 2 2 2 2 2 2 2 2 2 2 2 2 2 2 2 2 2 2 2 2 2 2 2 2 2 2 2 2 2 2 2 2 2 2
      2 2 2 2 2 2 2 2 2 2 2 2 2 2 2 2 2 2 2 2 2 2 2 2 2 2 2 2 2 2 2 2 2 2 2 2 2 2 2 2 2 2 2 2 2 2 2 2 2 2 2 2 2 2 2 2 2 2 2 2
      2 2 2 2 2 2 2 2 2 2 2 2 2 2 2 2 2 2 2 2 2 2 2 2 2 2 2 2 2 2 2 2 2 2 2 2 2 2 2 2 2 2 2 2 2 2 2 2 2 2 2 2 2 2 2 2 2 2 2 2
      2 2 2 2 2 2 2 2 2 2 2 2 2 2 2 2 2 2 2 2 2 2 2 2 2 2 2 2 2 2 2 2 2 2 2 2 2 2 2 2 2 2 2 2 2 2 2 2 2 2 2 2 2 2 2 2 2 2 2 2
      2 2 2 2 2 2 2 2 2 2 2 2 2 2 2 2 2 2 2 2 2 2 2 2 2 2 2 2 2 2 2 2 2 2 2 2 2 2 2 2 2 2 2 2 2 2 2 2 2 2 2 2 2 2 2 2 2 2 2 2
      2 2 2 2 2 2 2 2 2 2 2 2 2 2 2 2 2 2 2 2 2 2 2 2 2 2 2 2 2 2 2 2 2 2 2 2 2 2 2 2 2 2 2 2 2 2 2 2 2 2 2 2 2 2 2 2 2 2 2 2
      2 2 2 2 2 2 2 2 2 2 2 2 2 2 2 2 2 2 2 2 2 2 2 2 2 2 2 2 2 2 2 2 2 2 2 2 2 2 2 2 2 2 2 2 2 2 2 2 2 2 2 2 2 2 2 2 2 2 2 2
      2 2 2 2 2 2 2 2 2 2 2 2 2 2 2 2 2 2 2 2 2 2 2 2 2 2 2 2 2 2 2 2 2 2 2 2 2 2 2 2 2 2 2 2 2 2 2 2 2 2 2 2 2 2 2 2 2 2 2 2
      2 2 2 2 2 2 2 2 2 2 2 2 2 2 2 2 2 2 2 2 2 2 2 2 2 2 2 2 2 2 2 2 2 2 2 2 2 2 2 2 2 2 2 2 2 2 2 2 2 2 2 2 2 2 2 2 2 2 2 2
      2 2 2 2 2 2 2 2 2 2 2 2 2 2 2 2 2 2 2 2 2 2 2 2 2 2 2 2 2 2 2 2 2 2 2 2 2 2 2 2 2 2 2 2 2 2 2 2 2 2 2 2 2 2 2 2 2 2 2 2
      2 2 2 2 2 2 2 2 2 2 2 2 2 2 2 2 2 2 2 2 2 2 2 2 2 2 2 2 2 2 2 2 2 2 2 2 2 2 2 2 2 2 2 2 2 2 2 2 2 2 2 2 2 2 2 2 2 2 2 2
      2 2 2 2 2 2 2 2 2 2 2 2 2 2 2 2 2 2 2 2 2 2 2 2 2 2 2 2 2 2 2 2 2 2 2 2 2 2 2 2 2 2 2 2 2 2 2 2 2 2 2 2 2 2 2 2 2 2 2 2
      2 2 2 2 2 2 2 2 2 2 2 2 2 2 2 2 2 2 2 2 2 2 2 2 2 2 2 2 2 2 2 2 2 2 2 2 2 2 2 2 2 2 2 2 2 2 2 2 2 2 2 2 2 2 2 2 2 2 2 2
      2 2 2 2 2 2 2 2 2 2 2 2 2 2 2 2 2 2 2 2 2 2 2 2 2 2 2 2 2 2 2 2 2 2 2 2 2 2 2 2 2 2 2 2 2 2 2 2 2 2 2 2 2 2 2 2 2 2 2 2
      2 2 2 2 2 2 2 2 2 2 2 2 2 2 2 2 2 2 2 2 2 2 2 2 2 2 2 2 2 2 2 2 2 2 2 2 2 2 2 2 2 2 2 2 2 2 2 2 2 2 2 2 2 2 2 2 2 2 2 2
      2 2 2 2 2 2 2 2 2 2 2 2 2 2 2 2 2 2 2 2 2 2 2 2 2 2 2 2 2 2 2 2 2 2 2 2 2 2 2 2 2 2 2 2 2 2 2 2 2 2 2 2 2 2 2 2 2 2 2 2
      2 2 2 2 2 2 2 2 2 2 2 2 2 2 2 2 2 2 2 2 2 2 2 2 2 2 2 2 2 2 2 2 2 2 2 2 2 2 2 2 2 2 2 2 2 2 2 2 2 2 2 2 2 2 2 2 2 2 2 2
      2 2 2 2 2 2 2 2 2 2 2 2 2 2 2 2 2 2 2 2 2 2 2 2 2 2 2 2 2 2 2 2 2 2 2 2 2 2 2 2 2 2 2 2 2 2 2 2 2 2 2 2 2 2 2 2 2 2 2 2
      2 2 2 2 2 2 2 2 2 2 2 2 2 2 2 2 2 2 2 2 2 2 2 2 2 2 2 2 2 2 2 2 2 2 2 2 2 2 2 2 2 2 2 2 2 2 2 2 2 2 2 2 2 2 2 2 2 2 2 2
      2 2 2 2 2 2 2 2 2 2 2 2 2 2 2 2 2 2 2 2 2 2 2 2 2 2 2 2 2 2 2 2 2 2 2 2 2 2 2 2 2 2 2 2 2 2 2 2 2 2 2 2 2 2 2 2 2 2 2 2
      2 2 2 2 2 2 2 2 2 2 2 2 2 2 2 2 2 2 2 2 2 2 2 2 2 2 2 2 2 2 2 2 2 2 2 2 2 2 2 2 2 2 2 2 2 2 2 2 2 2 2 2 2 2 2 2 2 2 2 2
      2 2 2 2 2 2 2 2 2 2 2 2 2 2 2 2 2 2 2 2 2 2 2 2 2 2 2 2 2 2 2 2 2 2 2 2 2 2 2 2 2 2 2 2 2 2 2 2 2 2 2 2 2 2 2 2 2 2 2 2
      2 2 2 2 2 2 2 2 2 2 2 2 2 2 2 2 2 2 2 2 2 2 2 2 2 2 2 2 2 2 2 2 2 2 2 2 2 2 2 2 2 2 2 2 2 2 2 2 2 2 2 2 2 2 2 2 2 2 2 2
      2 2 2 2 2 2 2 2 2 2 2 2 2 2 2 2 2 2 2 2 2 2 2 2 2 2 2 2 2 2 2 2 2 2 2 2 2 2 2 2 2 2 2 2 2 2 2 2 2 2 2 2 2 2 2 2 2 2 2 2
      2 2 2 2 2 2 2 2 2 2 2 2 2 2 2 2 2 2 2 2 2 2 2 2 2 2 2 2 2 2 2 2 2 2 2 2 2 2 2 2 2 2 2 2 2 2 2 2 2 2 2 2 2 2 2 2 2 2 2 2
      2 2 2 2 2 2 2 2 2 2 2 2 2 2 2 2 2 2 2 2 2 2 2 2 2 2 2 2 2 2 2 2 2 2 2 2 2 2 2 2 2 2 2 2 2 2 2 2 2 2 2 2 2 2 2 2 2 2 2 2
      2 2 2 2 2 2 2 2 2 2 2 2 2 2 2 2 2 2 2 2 2 2 2 2 2 2 2 2 2 2 2 2 2 2 2 2 2 2 2 2 2 2 2 2 2 2 2 2 2 2 2 2 2 2 2 2 2 2 2 2
      2 2 2 2 2 2 2 2 2 2 2 2 2 2 2 2 2 2 2 2 2 2 2 2 2 2 2 2 2 2 2 2 2 2 2 2 2 2 2 2 2 2 2 2 2 2 2 2 2 2 2 2 2 2 2 2 2 2 2 2
      2 2 2 2 2 2 2 2 2 2 2 2 2 2 2 2 2 2 2 2 2 2 2 2 2 2 2 2 2 2 2 2 2 2 2 2 2 2 2 2 2 2 2 2 2 2 2 2 2 2 2 2 2 2 2 2 2 2 2 2
      2 2 2 2 2 2 2 2 2 2 2 2 2 2 2 2 2 2 2 2 2 2 2 2 2 2 2 2 2 2 2 2 2 2 2 2 2 2 2 2 2 2 2 2 2 2 2 2 2 2 2 2 2 2 2 2 2 2 2 2
      2 2 2 2 2 2 2 2 2 2 2 2 2 2 2 2 2 2 2 2 2 2 2 2 2 2 2 2 2 2 2 2 2 2 2 2 2 2 2 2 2 2 2 2 2 2 2 2 2 2 2 2 2 2 2 2 2 2 2 2
      2 2 2 2 2 2 2 2 2 2 2 2 2 2 2 2 2 2 2 2 2 2 2 2 2 2 2 2 2 2 2 2 2 2 2 2 2 2 2 2 2 2 2 2 2 2 2 2 2 2 2 2 2 2 2 2 2 2 2 2
      2 2 2 2 2 2 2 2 2 2 2 2 2 2 2 2 2 2 2 2 2 2 2 2 2 2 2 2 2 2 2 2 2 2 2 2 2 2 2 2 2 2 2 2 2 2 2 2 2 2 2 2 2 2 2 2 2 2 2 2
      2 2 2 2 2 2 2 2 2 2 2 2 2 2 2 2 2 2 2 2 2 2 2 2 2 2 2 2 2 2 2 2 2 2 2 2 2 2 2 2 2 2 2 2 2 2 2 2 2 2 2 2 2 2 2 2 2 2 2 2
      2 2 2 2 2 2 2 2 2 2 2 2 2 2 2 2 2 2 2 2 2 2 2 2 2 2 2 2 2 2 2 2 2 2 2 2 2 2 2 2 2 2 2 2 2 2 2 2 2 2 2 2 2 2 2 2 2 2 2 2
      2 2 2 2 2 2 2 2 2 2 2 2 2 2 2 2 2 2 2 2 2 2 2 2 2 2 2 2 2 2 2 2 2 2 2 2 2 2 2 2 2 2 2 2 2 2 2 2 2 2 2 2 2 2 2 2 2 2 2 2
      2 2 2 2 2 2 2 2 2 2 2 2 2 2 2 2 2 2 2 2 2 2 2 2 2 2 2 2 2 2 2 2 2 2 2 2 2 2 2 2 2 2 2 2 2 2 2 2 2 2 2 2 2 2 2 2 2 2 2 2
      2 2 2 2 2 2 2 2 2 2 2 2 2 2 2 2 2 2 2 2 2 2 2 2 2 2 2 2 2 2 2 2 2 2 2 2 2 2 2 2 2 2 2 2 2 2 2 2 2 2 2 2 2 2 2 2 2 2 2 2
      2 2 2 2 2 2 2 2 2 2 2 2 2 2 2 2 2 2 2 2 2 2 2 2 2 2 2 2 2 2 2 2 2 2 2 2 2 2 2 2 2 2 2 2 2 2 2 2 2 2 2 2 2 2 2 2 2 2 2 2
      2 2 2 2 2 2 2 2 2 2 2 2 2 2 2 2 2 2 2 2 2 2 2 2 2 2 2 2 2 2 2 2 2 2 2 2 2 2 2 2 2 2 2 2 2 2 2 2 2 2 2 2 2 2 2 2 2 2 2 2
      2 2 2 2 2 2 2 2 2 2 2 2 2 2 2 2 2 2 2 2 2 2 2 2 2 2 2 2 2 2 2 2 2 2 2 2 2 2 2 2 2 2 2 2 2 2 2 2 2 2 2 2 2 2 2 2 2 2 2 2
      2 2 2 2 2 2 2 2 2 2 2 2 2 2 2 2 2 2 2 2 2 2 2 2 2 2 2 2 2 2 2 2 2 2 2 2 2 2 2 2 2 2 2 2 2 2 2 2 2 2 2 2 2 2 2 2 2 2 2 2
      2 2 2 2 2 2 2 2 2 2 2 2 2 2 2 2 2 2 2 2 2 2 2 2 2 2 2 2 2 2 2 2 2 2 2 2 2 2 2 2 2 2 2 2 2 2 2 2 2 2 2 2 2 2 2 2 2 2 2 2
      2 2 2 2 2 2 2 2 2 2 2 2 2 2 2 2 2 2 2 2 2 2 2 2 2 2 2 2 2 2 2 2 2 2 2 2 2 2 2 2 2 2 2 2 2 2 2 2 2 2 2 2 2 2 2 2 2 2 2 2
      2 2 2 2 2 2 2 2 2 2 2 2 2 2 2 2 2 2 2 2 2 2 2 2 2 2 2 2 2 2 2 2 2 2 2 2 2 2 2 2 2 2 2 2 2 2 2 2 2 2 2 2 2 2 2 2 2 2 2 2
      2 2 2 2 2 2 2 2 2 2 2 2 2 2 2 2 2 2 2 2 2 2 2 2 2 2 2 2 2 2 2 2 2 2 2 2 2 2 2 2 2 2 2 2 2 2 2 2 2 2 2 2 2 2 2 2 2 2 2 2
      2 2 2 2 2 2 2 2 2 2 2 2 2 2 2 2 2 2 2 2 2 2 2 2 2 2 2 2 2 2 2 2 2 2 2 2 2 2 2 2 2 2 2 2 2 2 2 2 2 2 2 2 2 2 2 2 2 2 2 2
      2 2 2 2 2 2 2 2 2 2 2 2 2 2 2 2 2 2 2 2 2 2 2 2 2 2 2 2 2 2 2 2 2 2 2 2 2 2 2 2 2 2 2 2 2 2 2 2 2 2 2 2 2 2 2 2 2 2 2 2
      2 2 2 2 2 2 2 2 2 2 2 2 2 2 2 2 2 2 2 2 2 2 2 2 2 2 2 2 2 2 2 2 2 2 2 2 2 2 2 2 2 2 2 2 2 2 2 2 2 2 2 2 2 2 2 2 2 2 2 2
      2 2 2 2 2 2 2 2 2 2 2 2 2 2 2 2 2 2 2 2 2 2 2 2 2 2 2 2 2 2 2 2 2 2 2 2 2 2 2 2 2 2 2 2 2 2 2 2 2 2 2 2 2 2 2 2 2 2 2 2
      2 2 2 2 2 2 2 2 2 2 2 2 2 2 2 2 2 2 2 2 2 2 2 2 2 2 2 2 2 2 2 2 2 2 2 2 2 2 2 2 2 2 2 2 2 2 2 2 2 2 2 2 2 2 2 2 2 2 2 2
      2 2 2 2 2 2 2 2 2 2 2 2 2 2 2 2 2 2 2 2 2 2 2 2 2 2 2 2 2 2 2 2 2 2 2 2 2 2 2 2 2 2 2 2 2 2 2 2 2 2 2 2 2 2 2 2 2 2 2 2
      2 2 2 2 2 2 2 2 2 2 2 2 2 2 2 2 2 2 2 2 2 2 2 2 2 2 2 2 2 2 2 2 2 2 2 2 2 2 2 2 2 2 2 2 2 2 2 2 2 2 2 2 2 2 2 2 2 2 2 2
      2 2 2 2 2 2 2 2 2 2 2 2 2 2 2 2 2 2 2 2 2 2 2 2 2 2 2 2 2 2 2 2 2 2 2 2 2 2 2 2 2 2 2 2 2 2 2 2 2 2 2 2 2 2 2 2 2 2 2 2
      2 2 2 2 2 2 2 2 2 2 2 2 2 2 2 2 2 2 2 2 2 2 2 2 2 2 2 2 2 2 2 2 2 2 2 2 2 2 2 2 2 2 2 2 2 2 2 2 2 2 2 2 2 2 2 2 2 2 2 2
      2 2 2 2 2 2 2 2 2 2 2 2 2 2 2 2 2 2 2 2 2 2 2 2 2 2 2 2 2 2 2 2 2 2 2 2 2 2 2 2 2 2 2 2 2 2 2 2 2 2 2 2 2 2 2 2 2 2 2 2
      2 2 2 2 2 2 2 2 2 2 2 2 2 2 2 2 2 2 2 2 2 2 2 2 2 2 2 2 2 2 2 2 2 2 2 2 2 2 2 2 2 2 2 2 2 2 2 2 2 2 2 2 2 2 2 2 2 2 2 2
      2 2 2 2 2 2 2 2 2 2 2 2 2 2 2 2 2 2 2 2 2 2 2 2 2 2 2 2 2 2 2 2 2 2 2 2 2 2 2 2 2 2 2 2 2 2 2 2 2 2 2 2 2 2 2 2 2 2 2 2
      2 2 2 2 2 2 2 2 2 2 2 2 2 2 2 2 2 2 2 2 2 2 2 2 2 2 2 2 2 2 2 2 2 2 2 2 2 2 2 2 2 2 2 2 2 2 2 2 2 2 2 2 2 2 2 2 2 2 2 2
      2 2 2 2 2 2 2 2 2 2 2 2 2 2 2 2 2 2 2 2 2 2 2 2 2 2 2 2 2 2 2 2 2 2 2 2 2 2 2 2 2 2 2 2 2 2 2 2 2 2 2 2 2 2 2 2 2 2 2 2
      2 2 2 2 2 2 2 2 2 2 2 2 2 2 2 2 2 2 2 2 2 2 2 2 2 2 2 2 2 2 2 2 2 2 2 2 2 2 2 2 2 2 2 2 2 2 2

                  IDOMAIN FOR LAYER 3
      3 3 3 3 3 3 3 3 3 3 3 3 3 3 3 3 3 3 3 3 3 3 3 3 3 3 3 3 3 3 3 3 3 3 3 3 3 3 3 3 3 3 3 3 3 3 3 3 3 3 3 3 3 3 3 3 3 3 3 3
      3 3 3 3 3 3 3 3 3 3 3 3 3 3 3 3 3 3 3 3 3 3 3 3 3 3 3 3 3 3 3 3 3 3 3 3 3 3 3 3 3 3 3 3 3 3 3 3 3 3 3 3 3 3 3 3 3 3 3 3
      3 3 3 3 3 3 3 3 3 3 3 3 3 3 3 3 3 3 3 3 3 3 3 3 3 3 3 3 3 3 3 3 3 3 3 3 3 3 3 3 3 3 3 3 3 3 3 3 3 3 3 3 3 3 3 3 3 3 3 3
      3 3 3 3 3 3 3 3 3 3 3 3 3 3 3 3 3 3 3 3 3 3 3 3 3 3 3 3 3 3 3 3 3 3 3 3 3 3 3 3 3 3 3 3 3 3 3 3 3 3 3 3 3 3 3 3 3 3 3 3
      3 3 3 3 3 3 3 3 3 3 3 3 3 3 3 3 3 3 3 3 3 3 3 3 3 3 3 3 3 3 3 3 3 3 3 3 3 3 3 3 3 3 3 3 3 3 3 3 3 3 3 3 3 3 3 3 3 3 3 3
      3 3 3 3 3 3 3 3 3 3 3 3 3 3 3 3 3 3 3 3 3 3 3 3 3 3 3 3 3 3 3 3 3 3 3 3 3 3 3 3 3 3 3 3 3 3 3 3 3 3 3 3 3 3 3 3 3 3 3 3
      3 3 3 3 3 3 3 3 3 3 3 3 3 3 3 3 3 3 3 3 3 3 3 3 3 3 3 3 3 3 3 3 3 3 3 3 3 3 3 3 3 3 3 3 3 3 3 3 3 3 3 3 3 3 3 3 3 3 3 3
      3 3 3 3 3 3 3 3 3 3 3 3 3 3 3 3 3 3 3 3 3 3 3 3 3 3 3 3 3 3 3 3 3 3 3 3 3 3 3 3 3 3 3 3 3 3 3 3 3 3 3 3 3 3 3 3 3 3 3 3
      3 3 3 3 3 3 3 3 3 3 3 3 3 3 3 3 3 3 3 3 3 3 3 3 3 3 3 3 3 3 3 3 3 3 3 3 3 3 3 3 3 3 3 3 3 3 3 3 3 3 3 3 3 3 3 3 3 3 3 3
      3 3 3 3 3 3 3 3 3 3 3 3 3 3 3 3 3 3 3 3 3 3 3 3 3 3 3 3 3 3 3 3 3 3 3 3 3 3 3 3 3 3 3 3 3 3 3 3 3 3 3 3 3 3 3 3 3 3 3 3
      3 3 3 3 3 3 3 3 3 3 3 3 3 3 3 3 3 3 3 3 3 3 3 3 3 3 3 3 3 3 3 3 3 3 3 3 3 3 3 3 3 3 3 3 3 3 3 3 3 3 3 3 3 3 3 3 3 3 3 3
      3 3 3 3 3 3 3 3 3 3 3 3 3 3 3 3 3 3 3 3 3 3 3 3 3 3 3 3 3 3 3 3 3 3 3 3 3 3 3 3 3 3 3 3 3 3 3 3 3 3 3 3 3 3 3 3 3 3 3 3
      3 3 3 3 3 3 3 3 3 3 3 3 3 3 3 3 3 3 3 3 3 3 3 3 3 3 3 3 3 3 3 3 3 3 3 3 3 3 3 3 3 3 3 3 3 3 3 3 3 3 3 3 3 3 3 3 3 3 3 3
      3 3 3 3 3 3 3 3 3 3 3 3 3 3 3 3 3 3 3 3 3 3 3 3 3 3 3 3 3 3 3 3 3 3 3 3 3 3 3 3 3 3 3 3 3 3 3 3 3 3 3 3 3 3 3 3 3 3 3 3
      3 3 3 3 3 3 3 3 3 3 3 3 3 3 3 3 3 3 3 3 3 3 3 3 3 3 3 3 3 3 3 3 3 3 3 3 3 3 3 3 3 3 3 3 3 3 3 3 3 3 3 3 3 3 3 3 3 3 3 3
      3 3 3 3 3 3 3 3 3 3 3 3 3 3 3 3 3 3 3 3 3 3 3 3 3 3 3 3 3 3 3 3 3 3 3 3 3 3 3 3 3 3 3 3 3 3 3 3 3 3 3 3 3 3 3 3 3 3 3 3
      3 3 3 3 3 3 3 3 3 3 3 3 3 3 3 3 3 3 3 3 3 3 3 3 3 3 3 3 3 3 3 3 3 3 3 3 3 3 3 3 3 3 3 3 3 3 3 3 3 3 3 3 3 3 3 3 3 3 3 3
      3 3 3 3 3 3 3 3 3 3 3 3 3 3 3 3 3 3 3 3 3 3 3 3 3 3 3 3 3 3 3 3 3 3 3 3 3 3 3 3 3 3 3 3 3 3 3 3 3 3 3 3 3 3 3 3 3 3 3 3
      3 3 3 3 3 3 3 3 3 3 3 3 3 3 3 3 3 3 3 3 3 3 3 3 3 3 3 3 3 3 3 3 3 3 3 3 3 3 3 3 3 3 3 3 3 3 3 3 3 3 3 3 3 3 3 3 3 3 3 3
      3 3 3 3 3 3 3 3 3 3 3 3 3 3 3 3 3 3 3 3 3 3 3 3 3 3 3 3 3 3 3 3 3 3 3 3 3 3 3 3 3 3 3 3 3 3 3 3 3 3 3 3 3 3 3 3 3 3 3 3
      3 3 3 3 3 3 3 3 3 3 3 3 3 3 3 3 3 3 3 3 3 3 3 3 3 3 3 3 3 3 3 3 3 3 3 3 3 3 3 3 3 3 3 3 3 3 3 3 3 3 3 3 3 3 3 3 3 3 3 3
      3 3 3 3 3 3 3 3 3 3 3 3 3 3 3 3 3 3 3 3 3 3 3 3 3 3 3 3 3 3 3 3 3 3 3 3 3 3 3 3 3 3 3 3 3 3 3 3 3 3 3 3 3 3 3 3 3 3 3 3
      3 3 3 3 3 3 3 3 3 3 3 3 3 3 3 3 3 3 3 3 3 3 3 3 3 3 3 3 3 3 3 3 3 3 3 3 3 3 3 3 3 3 3 3 3 3 3 3 3 3 3 3 3 3 3 3 3 3 3 3
      3 3 3 3 3 3 3 3 3 3 3 3 3 3 3 3 3 3 3 3 3 3 3 3 3 3 3 3 3 3 3 3 3 3 3 3 3 3 3 3 3 3 3 3 3 3 3 3 3 3 3 3 3 3 3 3 3 3 3 3
      3 3 3 3 3 3 3 3 3 3 3 3 3 3 3 3 3 3 3 3 3 3 3 3 3 3 3 3 3 3 3 3 3 3 3 3 3 3 3 3 3 3 3 3 3 3 3 3 3 3 3 3 3 3 3 3 3 3 3 3
      3 3 3 3 3 3 3 3 3 3 3 3 3 3 3 3 3 3 3 3 3 3 3 3 3 3 3 3 3 3 3 3 3 3 3 3 3 3 3 3 3 3 3 3 3 3 3 3 3 3 3 3 3 3 3 3 3 3 3 3
      3 3 3 3 3 3 3 3 3 3 3 3 3 3 3 3 3 3 3 3 3 3 3 3 3 3 3 3 3 3 3 3 3 3 3 3 3 3 3 3 3 3 3 3 3 3 3 3 3 3 3 3 3 3 3 3 3 3 3 3
      3 3 3 3 3 3 3 3 3 3 3 3 3 3 3 3 3 3 3 3 3 3 3 3 3 3 3 3 3 3 3 3 3 3 3 3 3 3 3 3 3 3 3 3 3 3 3 3 3 3 3 3 3 3 3 3 3 3 3 3
      3 3 3 3 3 3 3 3 3 3 3 3 3 3 3 3 3 3 3 3 3 3 3 3 3 3 3 3 3 3 3 3 3 3 3 3 3 3 3 3 3 3 3 3 3 3 3 3 3 3 3 3 3 3 3 3 3 3 3 3
      3 3 3 3 3 3 3 3 3 3 3 3 3 3 3 3 3 3 3 3 3 3 3 3 3 3 3 3 3 3 3 3 3 3 3 3 3 3 3 3 3 3 3 3 3 3 3 3 3 3 3 3 3 3 3 3 3 3 3 3
      3 3 3 3 3 3 3 3 3 3 3 3 3 3 3 3 3 3 3 3 3 3 3 3 3 3 3 3 3 3 3 3 3 3 3 3 3 3 3 3 3 3 3 3 3 3 3 3 3 3 3 3 3 3 3 3 3 3 3 3
      3 3 3 3 3 3 3 3 3 3 3 3 3 3 3 3 3 3 3 3 3 3 3 3 3 3 3 3 3 3 3 3 3 3 3 3 3 3 3 3 3 3 3 3 3 3 3 3 3 3 3 3 3 3 3 3 3 3 3 3
      3 3 3 3 3 3 3 3 3 3 3 3 3 3 3 3 3 3 3 3 3 3 3 3 3 3 3 3 3 3 3 3 3 3 3 3 3 3 3 3 3 3 3 3 3 3 3 3 3 3 3 3 3 3 3 3 3 3 3 3
      3 3 3 3 3 3 3 3 3 3 3 3 3 3 3 3 3 3 3 3 3 3 3 3 3 3 3 3 3 3 3 3 3 3 3 3 3 3 3 3 3 3 3 3 3 3 3 3 3 3 3 3 3 3 3 3 3 3 3 3
      3 3 3 3 3 3 3 3 3 3 3 3 3 3 3 3 3 3 3 3 3 3 3 3 3 3 3 3 3 3 3 3 3 3 3 3 3 3 3 3 3 3 3 3 3 3 3 3 3 3 3 3 3 3 3 3 3 3 3 3
      3 3 3 3 3 3 3 3 3 3 3 3 3 3 3 3 3 3 3 3 3 3 3 3 3 3 3 3 3 3 3 3 3 3 3 3 3 3 3 3 3 3 3 3 3 3 3 3 3 3 3 3 3 3 3 3 3 3 3 3
      3 3 3 3 3 3 3 3 3 3 3 3 3 3 3 3 3 3 3 3 3 3 3 3 3 3 3 3 3 3 3 3 3 3 3 3 3 3 3 3 3 3 3 3 3 3 3 3 3 3 3 3 3 3 3 3 3 3 3 3
      3 3 3 3 3 3 3 3 3 3 3 3 3 3 3 3 3 3 3 3 3 3 3 3 3 3 3 3 3 3 3 3 3 3 3 3 3 3 3 3 3 3 3 3 3 3 3 3 3 3 3 3 3 3 3 3 3 3 3 3
      3 3 3 3 3 3 3 3 3 3 3 3 3 3 3 3 3 3 3 3 3 3 3 3 3 3 3 3 3 3 3 3 3 3 3 3 3 3 3 3 3 3 3 3 3 3 3 3 3 3 3 3 3 3 3 3 3 3 3 3
      3 3 3 3 3 3 3 3 3 3 3 3 3 3 3 3 3 3 3 3 3 3 3 3 3 3 3 3 3 3 3 3 3 3 3 3 3 3 3 3 3 3 3 3 3 3 3 3 3 3 3 3 3 3 3 3 3 3 3 3
      3 3 3 3 3 3 3 3 3 3 3 3 3 3 3 3 3 3 3 3 3 3 3 3 3 3 3 3 3 3 3 3 3 3 3 3 3 3 3 3 3 3 3 3 3 3 3 3 3 3 3 3 3 3 3 3 3 3 3 3
      3 3 3 3 3 3 3 3 3 3 3 3 3 3 3 3 3 3 3 3 3 3 3 3 3 3 3 3 3 3 3 3 3 3 3 3 3 3 3 3 3 3 3 3 3 3 3 3 3 3 3 3 3 3 3 3 3 3 3 3
      3 3 3 3 3 3 3 3 3 3 3 3 3 3 3 3 3 3 3 3 3 3 3 3 3 3 3 3 3 3 3 3 3 3 3 3 3 3 3 3 3 3 3 3 3 3 3 3 3 3 3 3 3 3 3 3 3 3 3 3
      3 3 3 3 3 3 3 3 3 3 3 3 3 3 3 3 3 3 3 3 3 3 3 3 3 3 3 3 3 3 3 3 3 3 3 3 3 3 3 3 3 3 3 3 3 3 3 3 3 3 3 3 3 3 3 3 3 3 3 3
      3 3 3 3 3 3 3 3 3 3 3 3 3 3 3 3 3 3 3 3 3 3 3 3 3 3 3 3 3 3 3 3 3 3 3 3 3 3 3 3 3 3 3 3 3 3 3 3 3 3 3 3 3 3 3 3 3 3 3 3
      3 3 3 3 3 3 3 3 3 3 3 3 3 3 3 3 3 3 3 3 3 3 3 3 3 3 3 3 3 3 3 3 3 3 3 3 3 3 3 3 3 3 3 3 3 3 3 3 3 3 3 3 3 3 3 3 3 3 3 3
      3 3 3 3 3 3 3 3 3 3 3 3 3 3 3 3 3 3 3 3 3 3 3 3 3 3 3 3 3 3 3 3 3 3 3 3 3 3 3 3 3 3 3 3 3 3 3 3 3 3 3 3 3 3 3 3 3 3 3 3
      3 3 3 3 3 3 3 3 3 3 3 3 3 3 3 3 3 3 3 3 3 3 3 3 3 3 3 3 3 3 3 3 3 3 3 3 3 3 3 3 3 3 3 3 3 3 3 3 3 3 3 3 3 3 3 3 3 3 3 3
      3 3 3 3 3 3 3 3 3 3 3 3 3 3 3 3 3 3 3 3 3 3 3 3 3 3 3 3 3 3 3 3 3 3 3 3 3 3 3 3 3 3 3 3 3 3 3 3 3 3 3 3 3 3 3 3 3 3 3 3
      3 3 3 3 3 3 3 3 3 3 3 3 3 3 3 3 3 3 3 3 3 3 3 3 3 3 3 3 3 3 3 3 3 3 3 3 3 3 3 3 3 3 3 3 3 3 3 3 3 3 3 3 3 3 3 3 3 3 3 3
      3 3 3 3 3 3 3 3 3 3 3 3 3 3 3 3 3 3 3 3 3 3 3 3 3 3 3 3 3 3 3 3 3 3 3 3 3 3 3 3 3 3 3 3 3 3 3 3 3 3 3 3 3 3 3 3 3 3 3 3
      3 3 3 3 3 3 3 3 3 3 3 3 3 3 3 3 3 3 3 3 3 3 3 3 3 3 3 3 3 3 3 3 3 3 3 3 3 3 3 3 3 3 3 3 3 3 3 3 3 3 3 3 3 3 3 3 3 3 3 3
      3 3 3 3 3 3 3 3 3 3 3 3 3 3 3 3 3 3 3 3 3 3 3 3 3 3 3 3 3 3 3 3 3 3 3 3 3 3 3 3 3 3 3 3 3 3 3 3 3 3 3 3 3 3 3 3 3 3 3 3
      3 3 3 3 3 3 3 3 3 3 3 3 3 3 3 3 3 3 3 3 3 3 3 3 3 3 3 3 3 3 3 3 3 3 3 3 3 3 3 3 3 3 3 3 3 3 3 3 3 3 3 3 3 3 3 3 3 3 3 3
      3 3 3 3 3 3 3 3 3 3 3 3 3 3 3 3 3 3 3 3 3 3 3 3 3 3 3 3 3 3 3 3 3 3 3 3 3 3 3 3 3 3 3 3 3 3 3 3 3 3 3 3 3 3 3 3 3 3 3 3
      3 3 3 3 3 3 3 3 3 3 3 3 3 3 3 3 3 3 3 3 3 3 3 3 3 3 3 3 3 3 3 3 3 3 3 3 3 3 3 3 3 3 3 3 3 3 3 3 3 3 3 3 3 3 3 3 3 3 3 3
      3 3 3 3 3 3 3 3 3 3 3 3 3 3 3 3 3 3 3 3 3 3 3 3 3 3 3 3 3 3 3 3 3 3 3 3 3 3 3 3 3 3 3 3 3 3 3 3 3 3 3 3 3 3 3 3 3 3 3 3
      3 3 3 3 3 3 3 3 3 3 3 3 3 3 3 3 3 3 3 3 3 3 3 3 3 3 3 3 3 3 3 3 3 3 3 3 3 3 3 3 3 3 3 3 3 3 3 3 3 3 3 3 3 3 3 3 3 3 3 3
      3 3 3 3 3 3 3 3 3 3 3 3 3 3 3 3 3 3 3 3 3 3 3 3 3 3 3 3 3 3 3 3 3 3 3 3 3 3 3 3 3 3 3 3 3 3 3 3 3 3 3 3 3 3 3 3 3 3 3 3
      3 3 3 3 3 3 3 3 3 3 3 3 3 3 3 3 3 3 3 3 3 3 3 3 3 3 3 3 3 3 3 3 3 3 3 3 3 3 3 3 3 3 3 3 3 3 3 3 3 3 3 3 3 3 3 3 3 3 3 3
      3 3 3 3 3 3 3 3 3 3 3 3 3 3 3 3 3 3 3 3 3 3 3 3 3 3 3 3 3 3 3 3 3 3 3 3 3 3 3 3 3 3 3 3 3 3 3 3 3 3 3 3 3 3 3 3 3 3 3 3
      3 3 3 3 3 3 3 3 3 3 3 3 3 3 3 3 3 3 3 3 3 3 3 3 3 3 3 3 3 3 3 3 3 3 3 3 3 3 3 3 3 3 3 3 3 3 3 3 3 3 3 3 3 3 3 3 3 3 3 3
      3 3 3 3 3 3 3 3 3 3 3 3 3 3 3 3 3 3 3 3 3 3 3 3 3 3 3 3 3 3 3 3 3 3 3 3 3 3 3 3 3 3 3 3 3 3 3 3 3 3 3 3 3 3 3 3 3 3 3 3
      3 3 3 3 3 3 3 3 3 3 3 3 3 3 3 3 3 3 3 3 3 3 3 3 3 3 3 3 3 3 3 3 3 3 3 3 3 3 3 3 3 3 3 3 3 3 3 3 3 3 3 3 3 3 3 3 3 3 3 3
      3 3 3 3 3 3 3 3 3 3 3 3 3 3 3 3 3 3 3 3 3 3 3 3 3 3 3 3 3 3 3 3 3 3 3 3 3 3 3 3 3 3 3 3 3 3 3 3 3 3 3 3 3 3 3 3 3 3 3 3
      3 3 3 3 3 3 3 3 3 3 3 3 3 3 3 3 3 3 3 3 3 3 3 3 3 3 3 3 3 3 3 3 3 3 3 3 3 3 3 3 3 3 3 3 3 3 3 3 3 3 3 3 3 3 3 3 3 3 3 3
      3 3 3 3 3 3 3 3 3 3 3 3 3 3 3 3 3 3 3 3 3 3 3 3 3 3 3 3 3 3 3 3 3 3 3 3 3 3 3 3 3 3 3 3 3 3 3 3 3 3 3 3 3 3 3 3 3 3 3 3
      3 3 3 3 3 3 3 3 3 3 3 3 3 3 3 3 3 3 3 3 3 3 3 3 3 3 3 3 3 3 3 3 3 3 3 3 3 3 3 3 3 3 3 3 3 3 3 3 3 3 3 3 3 3 3 3 3 3 3 3
      3 3 3 3 3 3 3 3 3 3 3 3 3 3 3 3 3 3 3 3 3 3 3 3 3 3 3 3 3 3 3 3 3 3 3 3 3 3 3 3 3 3 3 3 3 3 3 3 3 3 3 3 3 3 3 3 3 3 3 3
      3 3 3 3 3 3 3 3 3 3 3 3 3 3 3 3 3 3 3 3 3 3 3 3 3 3 3 3 3 3 3 3 3 3 3 3 3 3 3 3 3 3 3 3 3 3 3 3 3 3 3 3 3 3 3 3 3 3 3 3
      3 3 3 3 3 3 3 3 3 3 3 3 3 3 3 3 3 3 3 3 3 3 3 3 3 3 3 3 3 3 3 3 3 3 3 3 3 3 3 3 3 3 3 3 3 3 3 3 3 3 3 3 3 3 3 3 3 3 3 3
      3 3 3 3 3 3 3 3 3 3 3 3 3 3 3 3 3 3 3 3 3 3 3 3 3 3 3 3 3 3 3 3 3 3 3 3 3 3 3 3 3 3 3 3 3 3 3
 END PROCESSING GRIDDATA

 PROCESSING VERTICES
   SUCCESSFULLY READ 5182 (X,Y) COORDINATES
   MINIMUM X COORDINATE =     0.00000000000000    
   MAXIMUM X COORDINATE =     9781.25000000000    
   MINIMUM Y COORDINATE =     0.00000000000000    
   MAXIMUM Y COORDINATE =     10000.0000000000    
 END PROCESSING VERTICES

 PROCESSING CELL2D
   SUCCESSFULLY READ 4307 CELL2D INFORMATION ENTRIES
   MINIMUM X CELL CENTER =     125.000000000000    
   MAXIMUM X CELL CENTER =     9765.62500000000    
   MINIMUM Y CELL CENTER =     15.6250000000000    
   MAXIMUM Y CELL CENTER =     9984.37500000000    
   MAXIMUM NUMBER OF CELL2D VERTICES IS 8 FOR CELL 608
 END PROCESSING VERTICES

 NPF -- NODE PROPERTY FLOW PACKAGE, VERSION 1, 3/30/2015 INPUT READ FROM UNIT 1007


 # File generated by Flopy version 3.3.3 on 04/14/2021 at 16:24:13.
 PROCESSING NPF OPTIONS
    VALUES SPECIFIED FOR K33 ARE ANISOTROPY RATIOS AND WILL BE MULTIPLIED BY K BEFORE BEING USED IN CALCULATIONS.
 END OF NPF OPTIONS

 WEL   -- WEL PACKAGE, VERSION 8, 2/22/2014 INPUT READ FROM UNIT 1017
 # File generated by Flopy version 3.3.3 on 04/14/2021 at 16:24:14.

 PROCESSING WEL OPTIONS
    AUXILIARY WEL VARIABLE: IFACE           
    WEL BOUNDARIES HAVE NAMES IN LAST COLUMN.
    AUTOMATIC FLOW REDUCTION OF WELLS IMPLEMENTED.
    AUTOMATIC FLOW REDUCTION FRACTION (  0.1000000    ).

 OPENED model.wel.obs
 FILE TYPE:OBS   UNIT 1021   STATUS:OLD                 
 FORMAT:FORMATTED              ACCESS:SEQUENTIAL          
 ACTION:READ                

 END OF WEL OPTIONS

 PROCESSING WEL DIMENSIONS
    MAXBOUND =      13
 END OF WEL DIMENSIONS

 DRN   -- DRN PACKAGE, VERSION 8, 2/22/2014 INPUT READ FROM UNIT 1016
 # File generated by Flopy version 3.3.3 on 04/14/2021 at 16:24:14.

 PROCESSING DRN OPTIONS
    DRN BOUNDARIES HAVE NAMES IN LAST COLUMN.

 OPENED model.surf.drn.obs
 FILE TYPE:OBS   UNIT 1022   STATUS:OLD                 
 FORMAT:FORMATTED              ACCESS:SEQUENTIAL          
 ACTION:READ                

 END OF DRN OPTIONS

 PROCESSING DRN DIMENSIONS
    MAXBOUND =    4307
 END OF DRN DIMENSIONS

 RIV   -- RIV PACKAGE, VERSION 8, 2/22/2014 INPUT READ FROM UNIT 1015
 # File generated by Flopy version 3.3.3 on 04/14/2021 at 16:24:14.

 PROCESSING RIV OPTIONS
    RIV BOUNDARIES HAVE NAMES IN LAST COLUMN.

 OPENED model.riv.obs
 FILE TYPE:OBS   UNIT 1023   STATUS:OLD                 
 FORMAT:FORMATTED              ACCESS:SEQUENTIAL          
 ACTION:READ                

 END OF RIV OPTIONS

 PROCESSING RIV DIMENSIONS
    MAXBOUND =     672
 END OF RIV DIMENSIONS

 GHB   -- GHB PACKAGE, VERSION 8, 2/22/2014 INPUT READ FROM UNIT 1014
 # File generated by Flopy version 3.3.3 on 04/14/2021 at 16:24:14.

 PROCESSING GHB OPTIONS
    GHB BOUNDARIES HAVE NAMES IN LAST COLUMN.

 OPENED model.ghb.obs
 FILE TYPE:OBS   UNIT 1024   STATUS:OLD                 
 FORMAT:FORMATTED              ACCESS:SEQUENTIAL          
 ACTION:READ                

 END OF GHB OPTIONS

 PROCESSING GHB DIMENSIONS
    MAXBOUND =      80
 END OF GHB DIMENSIONS

 RCH   -- RCH PACKAGE, VERSION 8, 2/22/2014 INPUT READ FROM UNIT 1009
 # File generated by Flopy version 3.3.3 on 04/14/2021 at 16:24:13.

 PROCESSING RCH OPTIONS
    AUXILIARY RCH VARIABLE: MULTIPLIER      
    AUXILIARY MULTIPLIER NAME: MULTIPLIER      
    RCH BOUNDARIES HAVE NAMES IN LAST COLUMN.

 OPENED model.lu1.rch.obs
 FILE TYPE:OBS   UNIT 1025   STATUS:OLD                 
 FORMAT:FORMATTED              ACCESS:SEQUENTIAL          
 ACTION:READ                

 END OF RCH OPTIONS

 PROCESSING RCH DIMENSIONS
    MAXBOUND =    4307
 END OF RCH DIMENSIONS

 RCH   -- RCH PACKAGE, VERSION 8, 2/22/2014 INPUT READ FROM UNIT 1010
 # File generated by Flopy version 3.3.3 on 04/14/2021 at 16:24:13.

 PROCESSING RCH OPTIONS
    AUXILIARY RCH VARIABLE: MULTIPLIER      
    AUXILIARY MULTIPLIER NAME: MULTIPLIER      
    RCH BOUNDARIES HAVE NAMES IN LAST COLUMN.
 END OF RCH OPTIONS

 PROCESSING RCH DIMENSIONS
    MAXBOUND =      70
 END OF RCH DIMENSIONS

 RCH   -- RCH PACKAGE, VERSION 8, 2/22/2014 INPUT READ FROM UNIT 1011
 # File generated by Flopy version 3.3.3 on 04/14/2021 at 16:24:13.

 PROCESSING RCH OPTIONS
    AUXILIARY RCH VARIABLE: MULTIPLIER      
    AUXILIARY MULTIPLIER NAME: MULTIPLIER      
    RCH BOUNDARIES HAVE NAMES IN LAST COLUMN.
 END OF RCH OPTIONS

 PROCESSING RCH DIMENSIONS
    MAXBOUND =      65
 END OF RCH DIMENSIONS

 EVT   -- EVT PACKAGE, VERSION 8, 2/22/2014 INPUT READ FROM UNIT 1012
 # File generated by Flopy version 3.3.3 on 04/14/2021 at 16:24:13.

 PROCESSING EVT OPTIONS
    AUXILIARY EVT VARIABLE: MULTIPLIER      
    AUXILIARY MULTIPLIER NAME: MULTIPLIER      
    EVT BOUNDARIES HAVE NAMES IN LAST COLUMN.

 OPENED model.evt.obs
 FILE TYPE:OBS   UNIT 1026   STATUS:OLD                 
 FORMAT:FORMATTED              ACCESS:SEQUENTIAL          
 ACTION:READ                

 END OF EVT OPTIONS

 PROCESSING EVT DIMENSIONS
    MAXBOUND =    4307
    NSEG = 1
 END OF EVT DIMENSIONS

 CHD   -- CHD PACKAGE, VERSION 8, 2/22/2014 INPUT READ FROM UNIT 1013
 # File generated by Flopy version 3.3.3 on 04/14/2021 at 16:24:14.

 PROCESSING CHD OPTIONS
    CHD BOUNDARIES HAVE NAMES IN LAST COLUMN.

 OPENED model.chd.obs
 FILE TYPE:OBS   UNIT 1027   STATUS:OLD                 
 FORMAT:FORMATTED              ACCESS:SEQUENTIAL          
 ACTION:READ                

 END OF CHD OPTIONS

 PROCESSING CHD DIMENSIONS
    MAXBOUND =     396
 END OF CHD DIMENSIONS

 IC -- INITIAL CONDITIONS PACKAGE, VERSION 8, 3/28/2015 INPUT READ FROM UNIT 1008
 # File generated by Flopy version 3.3.3 on 04/14/2021 at 16:24:13.
 PROCESSING GRIDDATA
 END PROCESSING GRIDDATA
 PROCESSING GRIDDATA

 OPENED model.npf_icelltype_layer1.txt
 FILE TYPE:OPEN/CLOSE   UNIT 1028   STATUS:OLD                 
 FORMAT:FORMATTED              ACCESS:SEQUENTIAL          
 ACTION:READ                


 OPENED model.npf_icelltype_layer2.txt
 FILE TYPE:OPEN/CLOSE   UNIT 1029   STATUS:OLD                 
 FORMAT:FORMATTED              ACCESS:SEQUENTIAL          
 ACTION:READ                


 OPENED model.npf_icelltype_layer3.txt
 FILE TYPE:OPEN/CLOSE   UNIT 1030   STATUS:OLD                 
 FORMAT:FORMATTED              ACCESS:SEQUENTIAL          
 ACTION:READ                


 OPENED model.npf_k_layer1.txt
 FILE TYPE:OPEN/CLOSE   UNIT 1031   STATUS:OLD                 
 FORMAT:FORMATTED              ACCESS:SEQUENTIAL          
 ACTION:READ                


 OPENED model.npf_k_layer2.txt
 FILE TYPE:OPEN/CLOSE   UNIT 1032   STATUS:OLD                 
 FORMAT:FORMATTED              ACCESS:SEQUENTIAL          
 ACTION:READ                


 OPENED model.npf_k_layer3.txt
 FILE TYPE:OPEN/CLOSE   UNIT 1033   STATUS:OLD                 
 FORMAT:FORMATTED              ACCESS:SEQUENTIAL          
 ACTION:READ                


 OPENED model.npf_k33_layer1.txt
 FILE TYPE:OPEN/CLOSE   UNIT 1034   STATUS:OLD                 
 FORMAT:FORMATTED              ACCESS:SEQUENTIAL          
 ACTION:READ                


 OPENED model.npf_k33_layer2.txt
 FILE TYPE:OPEN/CLOSE   UNIT 1035   STATUS:OLD                 
 FORMAT:FORMATTED              ACCESS:SEQUENTIAL          
 ACTION:READ                


 OPENED model.npf_k33_layer3.txt
 FILE TYPE:OPEN/CLOSE   UNIT 1036   STATUS:OLD                 
 FORMAT:FORMATTED              ACCESS:SEQUENTIAL          
 ACTION:READ                

 K22 not provided.  Assuming K22 = K.
 END PROCESSING GRIDDATA

 STO -- STORAGE PACKAGE, VERSION 1, 5/19/2014 INPUT READ FROM UNIT 1006


 # File generated by Flopy version 3.3.3 on 04/14/2021 at 16:24:13.
 PROCESSING STORAGE OPTIONS
 END OF STORAGE OPTIONS
 PROCESSING GRIDDATA

                 ICONVERT = 1

         SPECIFIC STORAGE =  0.1000000E-04

           SPECIFIC YIELD =  0.1500000    
 END PROCESSING GRIDDATA

The observation utility is active for "MODEL"
 # File generated by Flopy version 3.3.3 on 04/14/2021 at 16:24:14.

Processing observation options:

Text output number of digits of precision set to: 10

    BINARY GRID INFORMATION WILL BE WRITTEN TO:
      UNIT NUMBER: 1038
      FILE NAME: c:\_data\work\gmdsi\tutorial\gmdsi_calib\_tutorial\runmodel\model\model.disv.grb

 OPENED c:\_data\work\gmdsi\tutorial\gmdsi_calib\_tutorial\runmodel\model\model.disv.grb
 FILE TYPE:DATA(BINARY)   UNIT 1038   STATUS:REPLACE             
 FORMAT:UNFORMATTED            ACCESS:STREAM              
 ACTION:READWRITE           

      THE LAST TIME STEP WILL BE PRINTED
      THE LAST TIME STEP WILL BE PRINTED
 # File generated by Flopy version 3.3.3 on 04/14/2021 at 16:24:14.

 PROCESSING OC OPTIONS

    BUDGET INFORMATION WILL BE WRITTEN TO:
      UNIT NUMBER: 1039
      FILE NAME: model.cbb

 OPENED model.cbb
 FILE TYPE:DATA(BINARY)   UNIT 1039   STATUS:REPLACE             
 FORMAT:UNFORMATTED            ACCESS:STREAM              
 ACTION:READWRITE           

    HEAD INFORMATION WILL BE WRITTEN TO:
      UNIT NUMBER: 1040
      FILE NAME: model.hds

 OPENED model.hds
 FILE TYPE:DATA(BINARY)   UNIT 1040   STATUS:REPLACE             
 FORMAT:UNFORMATTED            ACCESS:STREAM              
 ACTION:READWRITE           

 END OF OC OPTIONS

The observation utility is active for "WEL_0"
 # File generated by Flopy version 3.3.3 on 04/14/2021 at 16:24:14.

Processing observation options:

Text output number of digits of precision set to:  9


The observation utility is active for "DRN2"
 # File generated by Flopy version 3.3.3 on 04/14/2021 at 16:24:14.

Processing observation options:

Text output number of digits of precision set to:  9


The observation utility is active for "RIV_0"
 # File generated by Flopy version 3.3.3 on 04/14/2021 at 16:24:14.

Processing observation options:

Text output number of digits of precision set to:  9


The observation utility is active for "GHB_0"
 # File generated by Flopy version 3.3.3 on 04/14/2021 at 16:24:14.

Processing observation options:

Text output number of digits of precision set to:  9


The observation utility is active for "RCH1"
 # File generated by Flopy version 3.3.3 on 04/14/2021 at 16:24:14.

Processing observation options:

Text output number of digits of precision set to:  9


The observation utility is active for "EVT"
 # File generated by Flopy version 3.3.3 on 04/14/2021 at 16:24:14.

Processing observation options:

Text output number of digits of precision set to:  9


The observation utility is active for "CHD_0"
 # File generated by Flopy version 3.3.3 on 04/14/2021 at 16:24:14.

Processing observation options:

Text output number of digits of precision set to:  9


start timestep kper="1" kstp="1" mode="normal"


 BEGIN READING OUTPUT CONTROL FOR STRESS PERIOD 1
      THE LAST TIME STEP WILL BE SAVED
      THE LAST TIME STEP WILL BE SAVED
      THE LAST TIME STEP WILL BE PRINTED
      THE LAST TIME STEP WILL BE PRINTED

 END READING OUTPUT CONTROL FOR STRESS PERIOD 1


 PROCESSING STORAGE PERIOD DATA
 END PROCESSING STORAGE PERIOD DATA


 STRESS PERIOD 1 IS STEADY-STATE


 OPENED model.wel_stress_period_data_1.txt
 FILE TYPE:OPEN/CLOSE   UNIT 1048   STATUS:OLD                 
 FORMAT:FORMATTED              ACCESS:SEQUENTIAL          
 ACTION:READ                


 OPENED model.riv_stress_period_data_1.txt
 FILE TYPE:OPEN/CLOSE   UNIT 1049   STATUS:OLD                 
 FORMAT:FORMATTED              ACCESS:SEQUENTIAL          
 ACTION:READ                


 OPENED model.ghb_stress_period_data_1.txt
 FILE TYPE:OPEN/CLOSE   UNIT 1050   STATUS:OLD                 
 FORMAT:FORMATTED              ACCESS:SEQUENTIAL          
 ACTION:READ                


 OPENING FILE ON UNIT 99:
 model.lu1.rch_stress_period_data_1.txt
1
  HEAD IN LAYER   1 AT END OF TIME STEP   1 IN STRESS PERIOD    1
  ---------------------------------------------------------------------------

                1               2               3               4               5               6               7               8               9              10
               11              12              13              14              15              16              17              18              19              20
               21              22              23              24              25              26              27              28              29              30
               31              32              33              34              35              36              37              38              39              40
               41              42              43              44              45              46              47              48              49              50
               51              52              53              54              55              56              57              58              59              60
               61              62              63              64              65              66              67              68              69              70
               71              72              73              74              75              76              77              78              79              80
               81              82              83              84              85              86              87              88              89              90
               91              92              93              94              95              96              97              98              99             100
              101             102             103             104             105             106             107             108             109             110
              111             112             113             114             115             116             117             118             119             120
              121             122             123             124             125             126             127             128             129             130
              131             132             133             134             135             136             137             138             139             140
              141             142             143             144             145             146             147             148             149             150
              151             152             153             154             155             156             157             158             159             160
              161             162             163             164             165             166             167             168             169             170
              171             172             173             174             175             176             177             178             179             180
              181             182             183             184             185             186             187             188             189             190
              191             192             193             194             195             196             197             198             199             200
              201             202             203             204             205             206             207             208             209             210
              211             212             213             214             215             216             217             218             219             220
              221             222             223             224             225             226             227             228             229             230
              231             232             233             234             235             236             237             238             239             240
              241             242             243             244             245             246             247             248             249             250
              251             252             253             254             255             256             257             258             259             260
              261             262             263             264             265             266             267             268             269             270
              271             272             273             274             275             276             277             278             279             280
              281             282             283             284             285             286             287             288             289             290
              291             292             293             294             295             296             297             298             299             300
              301             302             303             304             305             306             307             308             309             310
              311             312             313             314             315             316             317             318             319             320
              321             322             323             324             325             326             327             328             329             330
              331             332             333             334             335             336             337             338             339             340
              341             342             343             344             345             346             347             348             349             350
              351             352             353             354             355             356             357             358             359             360
              361             362             363             364             365             366             367             368             369             370
              371             372             373             374             375             376             377             378             379             380
              381             382             383             384             385             386             387             388             389             390
              391             392             393             394             395             396             397             398             399             400
              401             402             403             404             405             406             407             408             409             410
              411             412             413             414             415             416             417             418             419             420
              421             422             423             424             425             426             427             428             429             430
              431             432             433             434             435             436             437             438             439             440
              441             442             443             444             445             446             447             448             449             450
              451             452             453             454             455             456             457             458             459             460
              461             462             463             464             465             466             467             468             469             470
              471             472             473             474             475             476             477             478             479             480
              481             482             483             484             485             486             487             488             489             490
              491             492             493             494             495             496             497             498             499             500
              501             502             503             504             505             506             507             508             509             510
              511             512             513             514             515             516             517             518             519             520
              521             522             523             524             525             526             527             528             529             530
              531             532             533             534             535             536             537             538             539             540
              541             542             543             544             545             546             547             548             549             550
              551             552             553             554             555             556             557             558             559             560
              561             562             563             564             565             566             567             568             569             570
              571             572             573             574             575             576             577             578             579             580
              581             582             583             584             585             586             587             588             589             590
              591             592             593             594             595             596             597             598             599             600
              601             602             603             604             605             606             607             608             609             610
              611             612             613             614             615             616             617             618             619             620
              621             622             623             624             625             626             627             628             629             630
              631             632             633             634             635             636             637             638             639             640
              641             642             643             644             645             646             647             648             649             650
              651             652             653             654             655             656             657             658             659             660
              661             662             663             664             665             666             667             668             669             670
              671             672             673             674             675             676             677             678             679             680
              681             682             683             684             685             686             687             688             689             690
              691             692             693             694             695             696             697             698             699             700
              701             702             703             704             705             706             707             708             709             710
              711             712             713             714             715             716             717             718             719             720
              721             722             723             724             725             726             727             728             729             730
              731             732             733             734             735             736             737             738             739             740
              741             742             743             744             745             746             747             748             749             750
              751             752             753             754             755             756             757             758             759             760
              761             762             763             764             765             766             767             768             769             770
              771             772             773             774             775             776             777             778             779             780
              781             782             783             784             785             786             787             788             789             790
              791             792             793             794             795             796             797             798             799             800
              801             802             803             804             805             806             807             808             809             810
              811             812             813             814             815             816             817             818             819             820
              821             822             823             824             825             826             827             828             829             830
              831             832             833             834             835             836             837             838             839             840
              841             842             843             844             845             846             847             848             849             850
              851             852             853             854             855             856             857             858             859             860
              861             862             863             864             865             866             867             868             869             870
              871             872             873             874             875             876             877             878             879             880
              881             882             883             884             885             886             887             888             889             890
              891             892             893             894             895             896             897             898             899             900
              901             902             903             904             905             906             907             908             909             910
              911             912             913             914             915             916             917             918             919             920
              921             922             923             924             925             926             927             928             929             930
              931             932             933             934             935             936             937             938             939             940
              941             942             943             944             945             946             947             948             949             950
              951             952             953             954             955             956             957             958             959             960
              961             962             963             964             965             966             967             968             969             970
              971             972             973             974             975             976             977             978             979             980
              981             982             983             984             985             986             987             988             989             990
              991             992             993             994             995             996             997             998             999            1000
             1001            1002            1003            1004            1005            1006            1007            1008            1009            1010
             1011            1012            1013            1014            1015            1016            1017            1018            1019            1020
             1021            1022            1023            1024            1025            1026            1027            1028            1029            1030
             1031            1032            1033            1034            1035            1036            1037            1038            1039            1040
             1041            1042            1043            1044            1045            1046            1047            1048            1049            1050
             1051            1052            1053            1054            1055            1056            1057            1058            1059            1060
             1061            1062            1063            1064            1065            1066            1067            1068            1069            1070
             1071            1072            1073            1074            1075            1076            1077            1078            1079            1080
             1081            1082            1083            1084            1085            1086            1087            1088            1089            1090
             1091            1092            1093            1094            1095            1096            1097            1098            1099            1100
             1101            1102            1103            1104            1105            1106            1107            1108            1109            1110
             1111            1112            1113            1114            1115            1116            1117            1118            1119            1120
             1121            1122            1123            1124            1125            1126            1127            1128            1129            1130
             1131            1132            1133            1134            1135            1136            1137            1138            1139            1140
             1141            1142            1143            1144            1145            1146            1147            1148            1149            1150
             1151            1152            1153            1154            1155            1156            1157            1158            1159            1160
             1161            1162            1163            1164            1165            1166            1167            1168            1169            1170
             1171            1172            1173            1174            1175            1176            1177            1178            1179            1180
             1181            1182            1183            1184            1185            1186            1187            1188            1189            1190
             1191            1192            1193            1194            1195            1196            1197            1198            1199            1200
             1201            1202            1203            1204            1205            1206            1207            1208            1209            1210
             1211            1212            1213            1214            1215            1216            1217            1218            1219            1220
             1221            1222            1223            1224            1225            1226            1227            1228            1229            1230
             1231            1232            1233            1234            1235            1236            1237            1238            1239            1240
             1241            1242            1243            1244            1245            1246            1247            1248            1249            1250
             1251            1252            1253            1254            1255            1256            1257            1258            1259            1260
             1261            1262            1263            1264            1265            1266            1267            1268            1269            1270
             1271            1272            1273            1274            1275            1276            1277            1278            1279            1280
             1281            1282            1283            1284            1285            1286            1287            1288            1289            1290
             1291            1292            1293            1294            1295            1296            1297            1298            1299            1300
             1301            1302            1303            1304            1305            1306            1307            1308            1309            1310
             1311            1312            1313            1314            1315            1316            1317            1318            1319            1320
             1321            1322            1323            1324            1325            1326            1327            1328            1329            1330
             1331            1332            1333            1334            1335            1336            1337            1338            1339            1340
             1341            1342            1343            1344            1345            1346            1347            1348            1349            1350
             1351            1352            1353            1354            1355            1356            1357            1358            1359            1360
             1361            1362            1363            1364            1365            1366            1367            1368            1369            1370
             1371            1372            1373            1374            1375            1376            1377            1378            1379            1380
             1381            1382            1383            1384            1385            1386            1387            1388            1389            1390
             1391            1392            1393            1394            1395            1396            1397            1398            1399            1400
             1401            1402            1403            1404            1405            1406            1407            1408            1409            1410
             1411            1412            1413            1414            1415            1416            1417            1418            1419            1420
             1421            1422            1423            1424            1425            1426            1427            1428            1429            1430
             1431            1432            1433            1434            1435            1436            1437            1438            1439            1440
             1441            1442            1443            1444            1445            1446            1447            1448            1449            1450
             1451            1452            1453            1454            1455            1456            1457            1458            1459            1460
             1461            1462            1463            1464            1465            1466            1467            1468            1469            1470
             1471            1472            1473            1474            1475            1476            1477            1478            1479            1480
             1481            1482            1483            1484            1485            1486            1487            1488            1489            1490
             1491            1492            1493            1494            1495            1496            1497            1498            1499            1500
             1501            1502            1503            1504            1505            1506            1507            1508            1509            1510
             1511            1512            1513            1514            1515            1516            1517            1518            1519            1520
             1521            1522            1523            1524            1525            1526            1527            1528            1529            1530
             1531            1532            1533            1534            1535            1536            1537            1538            1539            1540
             1541            1542            1543            1544            1545            1546            1547            1548            1549            1550
             1551            1552            1553            1554            1555            1556            1557            1558            1559            1560
             1561            1562            1563            1564            1565            1566            1567            1568            1569            1570
             1571            1572            1573            1574            1575            1576            1577            1578            1579            1580
             1581            1582            1583            1584            1585            1586            1587            1588            1589            1590
             1591            1592            1593            1594            1595            1596            1597            1598            1599            1600
             1601            1602            1603            1604            1605            1606            1607            1608            1609            1610
             1611            1612            1613            1614            1615            1616            1617            1618            1619            1620
             1621            1622            1623            1624            1625            1626            1627            1628            1629            1630
             1631            1632            1633            1634            1635            1636            1637            1638            1639            1640
             1641            1642            1643            1644            1645            1646            1647            1648            1649            1650
             1651            1652            1653            1654            1655            1656            1657            1658            1659            1660
             1661            1662            1663            1664            1665            1666            1667            1668            1669            1670
             1671            1672            1673            1674            1675            1676            1677            1678            1679            1680
             1681            1682            1683            1684            1685            1686            1687            1688            1689            1690
             1691            1692            1693            1694            1695            1696            1697            1698            1699            1700
             1701            1702            1703            1704            1705            1706            1707            1708            1709            1710
             1711            1712            1713            1714            1715            1716            1717            1718            1719            1720
             1721            1722            1723            1724            1725            1726            1727            1728            1729            1730
             1731            1732            1733            1734            1735            1736            1737            1738            1739            1740
             1741            1742            1743            1744            1745            1746            1747            1748            1749            1750
             1751            1752            1753            1754            1755            1756            1757            1758            1759            1760
             1761            1762            1763            1764            1765            1766            1767            1768            1769            1770
             1771            1772            1773            1774            1775            1776            1777            1778            1779            1780
             1781            1782            1783            1784            1785            1786            1787            1788            1789            1790
             1791            1792            1793            1794            1795            1796            1797            1798            1799            1800
             1801            1802            1803            1804            1805            1806            1807            1808            1809            1810
             1811            1812            1813            1814            1815            1816            1817            1818            1819            1820
             1821            1822            1823            1824            1825            1826            1827            1828            1829            1830
             1831            1832            1833            1834            1835            1836            1837            1838            1839            1840
             1841            1842            1843            1844            1845            1846            1847            1848            1849            1850
             1851            1852            1853            1854            1855            1856            1857            1858            1859            1860
             1861            1862            1863            1864            1865            1866            1867            1868            1869            1870
             1871            1872            1873            1874            1875            1876            1877            1878            1879            1880
             1881            1882            1883            1884            1885            1886            1887            1888            1889            1890
             1891            1892            1893            1894            1895            1896            1897            1898            1899            1900
             1901            1902            1903            1904            1905            1906            1907            1908            1909            1910
             1911            1912            1913            1914            1915            1916            1917            1918            1919            1920
             1921            1922            1923            1924            1925            1926            1927            1928            1929            1930
             1931            1932            1933            1934            1935            1936            1937            1938            1939            1940
             1941            1942            1943            1944            1945            1946            1947            1948            1949            1950
             1951            1952            1953            1954            1955            1956            1957            1958            1959            1960
             1961            1962            1963            1964            1965            1966            1967            1968            1969            1970
             1971            1972            1973            1974            1975            1976            1977            1978            1979            1980
             1981            1982            1983            1984            1985            1986            1987            1988            1989            1990
             1991            1992            1993            1994            1995            1996            1997            1998            1999            2000
             2001            2002            2003            2004            2005            2006            2007            2008            2009            2010
             2011            2012            2013            2014            2015            2016            2017            2018            2019            2020
             2021            2022            2023            2024            2025            2026            2027            2028            2029            2030
             2031            2032            2033            2034            2035            2036            2037            2038            2039            2040
             2041            2042            2043            2044            2045            2046            2047            2048            2049            2050
             2051            2052            2053            2054            2055            2056            2057            2058            2059            2060
             2061            2062            2063            2064            2065            2066            2067            2068            2069            2070
             2071            2072            2073            2074            2075            2076            2077            2078            2079            2080
             2081            2082            2083            2084            2085            2086            2087            2088            2089            2090
             2091            2092            2093            2094            2095            2096            2097            2098            2099            2100
             2101            2102            2103            2104            2105            2106            2107            2108            2109            2110
             2111            2112            2113            2114            2115            2116            2117            2118            2119            2120
             2121            2122            2123            2124            2125            2126            2127            2128            2129            2130
             2131            2132            2133            2134            2135            2136            2137            2138            2139            2140
             2141            2142            2143            2144            2145            2146            2147            2148            2149            2150
             2151            2152            2153            2154            2155            2156            2157            2158            2159            2160
             2161            2162            2163            2164            2165            2166            2167            2168            2169            2170
             2171            2172            2173            2174            2175            2176            2177            2178            2179            2180
             2181            2182            2183            2184            2185            2186            2187            2188            2189            2190
             2191            2192            2193            2194            2195            2196            2197            2198            2199            2200
             2201            2202            2203            2204            2205            2206            2207            2208            2209            2210
             2211            2212            2213            2214            2215            2216            2217            2218            2219            2220
[...]
          94.1893         93.7579         93.2473         92.8462         93.2881         92.9672         92.4706         92.1284         92.5800         92.2890    
          91.7888         91.4850         91.9253         91.6576         91.1936         90.9361         91.3326         91.0991         90.6836         90.4677    
          90.8123         90.6046         90.2004         89.8112         89.4391         89.0376         88.5860         88.2242         88.0313         87.9566    
          88.1098         88.0480         87.8793         87.8029         87.9758         87.9111         87.7238         87.6462         87.8290         87.7628    
          87.5671         87.4975         87.6791         87.6081         87.4353         87.2770         87.1013         86.9042         86.8167         87.0145    
          86.9400         86.7435         86.5573         86.3444         86.1148         85.8755         85.6237         85.3577         85.1177         84.9120    
          84.7209         84.5601         84.4911         84.4635         84.5177         84.4927         84.6152         84.5501         84.5224         84.5758    
          84.5504         84.4490         84.4617         84.4785         84.4910         84.5077         84.5200         84.5361         84.5481         100.163    
          98.4609         96.6609         95.0345         93.9292         93.2258         92.6199         92.0052         91.4237         90.8969         90.4371    
          90.0510         89.7047         89.3533         88.9636         88.5626         88.2982         88.1389         87.9929         87.8468         87.7010    
          87.5466         87.3787         87.1985         87.0193         86.8253         86.6095         86.3719         86.1193         85.8602         85.5952    
          85.3308         85.0876         84.8615         84.6833         84.6094         84.5791         84.6332         84.6050         84.7317         84.6613    
          84.6304         84.6835         84.6544         84.5641         84.5756         84.5905         84.6014         84.6156         84.6257         84.6385    
          84.6465         100.513         98.5899         96.5566         94.8511         93.8737         93.3019         92.7929         92.2178         91.6223    
          91.0607         90.5693         90.1912         89.8762         89.5787         89.2645         88.9285         88.6371         88.4369         88.2740    
          88.1202         87.9679         87.8090         87.6399         87.4593         87.2695         87.0663         86.8420         86.5936         86.3305    
          86.0584         85.7816         85.5035         85.2347         84.9821         84.7909         84.7137         84.6820         84.6697         84.6963    
          84.6880         84.7372         84.7120         84.7038         84.7240         84.7175         84.8331         84.7637         84.7385         84.7307    
          84.7489         84.7423         84.7844         84.7611         84.7534         84.7709         84.7629         84.6551         100.686         98.7673    
          96.5862         94.7640         93.8823         93.3731         92.8936         92.3286         91.7121         91.1130         90.5736         90.2335    
          89.9653         89.7217         89.4748         89.2136         88.9547         88.7355         88.5533         88.3859         88.2223         88.0544    
          87.8777         87.6909         87.4909         87.2756         87.0395         86.7791         86.5028         86.2192         85.9305         85.6387    
          85.3495         85.1146         85.0035         85.1598         85.0362         84.8841         84.8123         84.7851         84.7708         84.8016    
          84.8353         84.8173         84.8274         84.9390         84.8974         84.9607         84.9173         84.8617         84.8484         84.8733    
          84.8595         84.8384         84.8457         84.8877         84.8765         84.8987         84.8887         100.724         98.7883         96.6126    
          94.8391         93.9880         93.4814         92.9479         92.3428         91.6968         91.0812         90.4630         90.2241         90.0062    
          89.8077         89.6165         89.4151         89.2032         88.9945         88.8034         88.6263         88.4527         88.2756         88.0901    
          87.8935         87.6830         87.4555         87.2066         86.9343         86.6450         86.3470         86.0440         85.7383         85.4362    
          85.2060         85.0746         85.2353         85.1096         84.9846         84.9408         85.0032         84.9642         84.9126         84.8975    
          84.9292         84.9445         84.9532         85.0255         84.9896         84.9757         85.0019         84.9903         85.0464         85.0160    
          84.9998         85.0325         84.9611         100.713         98.8100         96.8058         95.2055         94.2234         93.5661         92.9562    
          92.2913         91.5692         91.0951         90.6313         90.3009         90.0283         89.8549         89.7099         89.5596         89.3918    
          89.2064         89.0167         88.8331         88.6527         88.4684         88.2751         88.0698         87.8491         87.6098         87.3493    
          87.0646         86.7602         86.4446         86.1233         85.8023         85.4927         85.2666         85.1610         85.1147         85.1801    
          85.1323         85.2932         85.2003         85.1590         85.1424         85.1706         85.1535         85.2199         85.1850         85.1706    
          85.1966         85.1801         85.0740         85.0585         85.0854         85.0692         85.0462         85.0543         85.0988         85.0851    
          85.1095         85.0939         85.1274         85.1369         100.631         98.9160         97.1193         95.5986         94.5290         93.7285    
          93.0023         92.2076         91.0885         91.0782         90.7417         90.3346         89.9328         89.8462         89.7664         89.6624    
          89.5341         89.3759         89.1929         89.0055         88.8194         88.6301         88.4307         88.2181         87.9903         87.7431    
          87.4724         87.1742         86.8518         86.5133         86.1687         85.8305         85.5807         85.4573         85.6014         85.4679    
          85.3437         85.2936         85.3606         85.3093         85.2489         85.2313         85.2607         85.2427         85.2156         85.2257    
          85.2741         85.2594         85.2847         85.2685         85.3756         85.3342         85.3175         85.3448         85.3275         85.3917    
          85.3575         85.3433         85.3677         85.3519         85.3021         85.3113         100.563         99.0232         97.3981         95.9593    
          94.8416         93.9385         93.1512         92.4098         91.7241         91.3379         90.9012         90.3420         89.4593         89.8071    
          89.8111         89.7369         89.6381         89.5075         89.3360         89.1458         88.9550         88.7613         88.5577         88.3400    
          88.1073         87.8559         87.5783         87.2656         86.9200         86.5535         86.1843         85.8433         85.6140         85.5079    
          85.4599         85.5216         85.4718         85.6289         85.5356         85.4947         85.4783         85.5045         85.4874         85.5508    
          85.5165         85.5023         85.5263         85.5105         85.4168         85.3998         85.4269         85.4093         85.3846         85.3933    
          85.4383         85.4242         85.4476         85.4321         85.4634         85.4717         100.536         99.0871         97.5895         96.2520    
          95.1273         94.1480         93.3093         92.5798         92.0362         91.5922         91.1298         90.6212         90.1403         90.0049    
          89.8954         89.7891         89.7082         89.6037         89.4502         89.2587         89.0628         88.8663         88.6595         88.4382    
          88.2013         87.9479         87.6692         87.3445         86.9676         86.5657         86.1806         85.9129         85.7853         85.9282    
          85.7873         85.6705         85.6198         85.6831         85.6304         85.5757         85.5582         85.5856         85.5674         85.5427    
          85.5512         85.5966         85.5822         85.6060         85.5902         85.6933         85.6463         85.7039         85.6671         85.6527    
          85.6772         85.6649         85.6227         85.6314         85.6381         100.548         99.2129         97.8140         96.5050         95.3344    
          94.3176         93.4579         92.6875         92.2470         91.8081         91.3308         90.8247         90.4195         90.1614         89.9628    
          89.7863         89.7375         89.6588         89.5253         89.3445         89.1482         88.9497         88.7402         88.5148         88.2731    
          88.0173         87.7432         87.4125         86.9980         86.5643         86.1801         85.9368         85.8007         85.9453         85.8391    
          85.7933         85.8521         85.8034         85.7196         85.6888         85.6728         85.7035         85.7352         85.7154         85.7221    
          85.7558         85.7419         85.7653         85.7540         85.7280         85.7741         85.7628         85.7820         85.7683         100.572    
          99.3497         98.0315         96.7471         95.5520         94.5221         93.7120         93.0428         92.5204         92.0124         91.4595    
          90.8752         90.5675         90.2943         90.0209         89.6337         89.7452         89.6942         89.5640         89.3945         89.2061    
          89.0136         88.8052         88.5772         88.3295         88.0676         87.7912         87.4554         87.0134         86.5613         86.1868    
          85.9585         85.8646         85.8190         85.8750         85.8385         85.8246         85.8470         85.8322         85.9744         85.8892    
          85.8579         85.8463         85.8660         85.8566         85.9014         85.8746         85.8653         85.8811         85.8726         85.7972    
          85.8058         85.8137         85.8188         100.582         99.4598         98.2260         96.9705         95.7929         94.7760         93.9703    
          93.3300         92.7673         92.2042         91.5534         90.6101         90.6710         90.4667         90.2147         89.9800         89.8806    
          89.7413         89.5551         89.4007         89.2425         89.0638         88.8597         88.6313         88.3796         88.1087         87.8122    
          87.4568         87.0186         86.5714         86.2719         86.1370         86.2922         86.1406         85.9953         85.9160         85.8891    
          85.8792         85.8962         85.8837         85.9306         85.9106         85.9194         86.0346         85.9887         86.0470         85.9963    
          85.9456         85.9286         85.9343         85.9627         85.9499         85.9703         85.9565         85.9402         85.9444         100.569    
          99.5358         98.3775         97.1771         96.0275         95.0295         94.2204         93.5702         92.9933         92.4384         91.8694    
          91.2937         90.9858         90.7024         90.4292         90.1868         89.9872         89.7459         89.4414         89.3601         89.2559    
          89.1017         88.9058         88.6788         88.4239         88.1413         87.8238         87.4489         87.0150         86.5848         86.3084    
          86.1561         86.3195         86.1718         86.0594         86.0091         86.0690         86.0215         85.9802         85.9693         85.9877    
          85.9788         85.9960         85.9871         86.0021         85.9942         86.0802         86.0333         86.0887         86.0440         86.0092    
          86.0009         86.0143         86.0067         86.0205         86.0123         86.0253         86.0170         100.535         99.5876         98.4930    
          97.3498         96.2431         95.2575         94.4351         93.7657         93.1865         92.6496         92.1325         91.6462         91.2570    
          90.9250         90.6248         90.3501         90.0781         89.7169         89.0400         89.2941         89.2714         89.1385         88.9480    
          88.7200         88.4599         88.1656         87.8295         87.4398         87.0100         86.5951         86.3322         86.1868         86.3407    
          86.1993         86.0991         86.0556         86.1074         86.0673         86.0324         86.0209         86.0426         86.0514         86.0570    
          86.1162         86.0772         86.1225         86.0854         86.0631         86.0671         86.0718         86.0748         100.524         99.6091    
          98.5708         97.4759         96.4059         95.4346         94.6036         93.9196         93.3326         92.8058         92.3160         91.8610    
          91.4555         91.0990         90.7800         90.4858         90.2002         89.8895         89.5603         89.4614         89.3470         89.1880    
          88.9884         88.7544         88.4870         88.1820         87.8316         87.4314         87.0034         86.5994         86.3485         86.2096    
          86.3530         86.2180         86.1295         86.0984         86.0867         86.1036         86.0909         86.1366         86.1100         86.0999    
          86.1148         86.1061         86.0782         86.0807         86.1440         86.1197         86.1111         86.1230         86.1150         86.1490    
          86.1264         86.1183         86.1288         86.1211         100.520         99.6099         98.6031         97.5527         96.5177         95.5611    
          94.7252         94.0230         93.4241         92.9040         92.4299         91.9858         91.5797         91.2146         90.8855         90.5819    
          90.3002         90.0248         89.7675         89.5860         89.4170         89.2318         89.0204         88.7793         88.5049         88.1911    
          87.8295         87.4186         86.9916         86.5953         86.3548         86.2234         86.3558         86.2264         86.1535         86.1314    
          86.1236         86.1332         86.1256         86.1563         86.1351         86.1275         86.1365         86.1290         86.1589         86.1380    
          86.1304         86.1390         86.1316         86.1606         86.1402         86.1327         86.1410         86.1337         100.509         99.6075    
          98.6197         97.5919         96.5711         95.6265         94.7925         94.0743         93.4711         92.9539         92.4835         92.0453    
          91.6413         91.2739         90.9410         90.6357         90.3554         90.0913         89.8494         89.6459         89.4556         89.2572    
          89.0380         88.7925         88.5141         88.1949         87.8265         87.4098         86.9843         86.5925         86.3561         86.2282    
          86.3564         86.2300         86.1624         86.1422         86.1348         86.1434         86.1359         86.1654         86.1459         86.1371    
          86.1515         86.1691         86.1552         86.1571         86.1709         86.1584         86.1589    

 HEAD WILL BE SAVED ON UNIT 1040 AT END OF TIME STEP    1, STRESS PERIOD    2


  VOLUME BUDGET FOR ENTIRE MODEL AT END OF TIME STEP    1, STRESS PERIOD   2
  ---------------------------------------------------------------------------------------------------

     CUMULATIVE VOLUME      L**3       RATES FOR THIS TIME STEP      L**3/T          PACKAGE NAME    
     ------------------                 ------------------------                     ----------------

           IN:                                      IN:
           ---                                      ---
              STO-SS =           0.0000                STO-SS =           0.0000     STORAGE         
              STO-SY =           0.0000                STO-SY =           0.0000     STORAGE         
                 WEL =           0.0000                   WEL =           0.0000     WEL_0           
                 DRN =           0.0000                   DRN =           0.0000     DRN2            
                 RIV =         125.7623                   RIV =          68.3469     RIV_0           
                 GHB =       19225.4399                   GHB =        9698.8023     GHB_0           
                 RCH =       38963.0709                   RCH =       19481.5354     RCH1            
                 RCH =        1438.3562                   RCH =         719.1781     RCH2            
                 RCH =        1669.5205                   RCH =         834.7603     RCH3            
                 EVT =           0.0000                   EVT =           0.0000     EVT             
                 CHD =           0.0000                   CHD =           0.0000     CHD_0           

            TOTAL IN =       61422.1498              TOTAL IN =       30802.6230

          OUT:                                     OUT:
          ----                                     ----
              STO-SS =           0.0000                STO-SS =           0.0000     STORAGE         
              STO-SY =           0.0000                STO-SY =           0.0000     STORAGE         
                 WEL =       21150.0000                   WEL =       11575.0000     WEL_0           
                 DRN =        9579.6497                   DRN =        4484.7471     DRN2            
                 RIV =       21505.7809                   RIV =       10160.0632     RIV_0           
                 GHB =           0.0000                   GHB =           0.0000     GHB_0           
                 RCH =           0.0000                   RCH =           0.0000     RCH1            
                 RCH =           0.0000                   RCH =           0.0000     RCH2            
                 RCH =           0.0000                   RCH =           0.0000     RCH3            
                 EVT =           0.0000                   EVT =           0.0000     EVT             
                 CHD =        9189.8459                   CHD =        4581.5298     CHD_0           

           TOTAL OUT =       61425.2765             TOTAL OUT =       30801.3400

            IN - OUT =          -3.1266              IN - OUT =           1.2830

 PERCENT DISCREPANCY =          -0.01     PERCENT DISCREPANCY =           0.00




         TIME SUMMARY AT END OF TIME STEP    1 IN STRESS PERIOD    2
                    SECONDS     MINUTES      HOURS       DAYS        YEARS
                    -----------------------------------------------------------
   TIME STEP LENGTH  86400.      1440.0      24.000      1.0000     2.73785E-03
 STRESS PERIOD TIME  86400.      1440.0      24.000      1.0000     2.73785E-03
         TOTAL TIME 1.72800E+05  2880.0      48.000      2.0000     5.47570E-03


end timestep

