                                   MODFLOW 6
                U.S. GEOLOGICAL SURVEY MODULAR HYDROLOGIC MODEL
                            VERSION 6.2.0 10/22/2020

   MODFLOW 6 compiled Oct 22 2020 09:26:42 with IFORT compiler (ver. 19.10.2)

This software has been approved for release by the U.S. Geological 
Survey (USGS). Although the software has been subjected to rigorous 
review, the USGS reserves the right to update the software as needed 
pursuant to further analysis and review. No warranty, expressed or 
implied, is made by the USGS or the U.S. Government as to the 
functionality of the software and related material nor shall the 
fact of release constitute any such warranty. Furthermore, the 
software is released on condition that neither the USGS nor the U.S. 
Government shall be held liable for any damages resulting from its 
authorized or unauthorized use. Also refer to the USGS Water 
Resources Software User Rights Notice for complete use, copyright, 
and distribution information.


System command used to initiate simulation:
mf6  mfsim.nam

MODFLOW was compiled using uniform precision.

Real Variables
  KIND: 8
  TINY (smallest non-zero value):    2.225074-308
  HUGE (largest value):    1.797693+308
  PRECISION: 15
  BIT SIZE: 64

Integer Variables
  KIND: 4
  HUGE (largest value): 2147483647
  BIT SIZE: 32

Long Integer Variables
  KIND: 8
  HUGE (largest value): 9223372036854775807
  BIT SIZE: 64

Logical Variables
  KIND: 4
  BIT SIZE: 32
 

 OPENED mfsim.nam
 FILE TYPE:NAM   UNIT 1001   STATUS:OLD                 
 FORMAT:FORMATTED              ACCESS:SEQUENTIAL          
 ACTION:READ                

 # File generated by Flopy version 3.3.3 on 02/11/2021 at 12:42:15.

 READING SIMULATION OPTIONS
 END OF SIMULATION OPTIONS

 READING SIMULATION TIMING

 OPENED model.tdis
 FILE TYPE:TDIS   UNIT 1002   STATUS:OLD                 
 FORMAT:FORMATTED              ACCESS:SEQUENTIAL          
 ACTION:READ                


 TDIS -- TEMPORAL DISCRETIZATION PACKAGE,
 VERSION 1 : 11/13/2014 - INPUT READ FROM UNIT 1002
 # File generated by Flopy version 3.3.3 on 02/11/2021 at 12:42:15.
 PROCESSING TDIS OPTIONS
    SIMULATION TIME UNIT IS DAYS
    SIMULATION STARTING DATE AND TIME IS 1999-12-31                    
 END OF TDIS OPTIONS
 PROCESSING TDIS DIMENSIONS
    2 STRESS PERIOD(S) IN SIMULATION
 END OF TDIS DIMENSIONS
 PROCESSING TDIS PERIODDATA


 STRESS PERIOD     LENGTH       TIME STEPS     MULTIPLIER FOR DELT
 ----------------------------------------------------------------------------
        1         0.000000          1                    1.000
        2         3653.000        120                    1.000

 PERLEN IS ZERO FOR STRESS PERIOD 1. PERLEN MUST NOT BE ZERO FOR TRANSIENT PERIODS.
 END OF TDIS PERIODDATA
 END OF SIMULATION TIMING

 READING SIMULATION MODELS
    GWF6 model MODEL will be created as model 1
 END OF SIMULATION MODELS

 READING SIMULATION EXCHANGES
 END OF SIMULATION EXCHANGES

 READING SOLUTIONGROUP

 Creating solution: SLN_1           

 OPENED model.ims
 FILE TYPE:IMS   UNIT 1018   STATUS:OLD                 
 FORMAT:FORMATTED              ACCESS:SEQUENTIAL          
 ACTION:READ                

 END OF SIMULATION SOLUTIONGROUP

 IMS -- ITERATIVE MODEL SOLUTION PACKAGE, VERSION 6, 4/28/2017
         INPUT READ FROM UNIT 1018
 # File generated by Flopy version 3.3.3 on 02/11/2021 at 12:42:15.

 PROCESSING IMS OPTIONS
 SIMPLE OPTION:
 DEFAULT SOLVER INPUT VALUES FOR FAST SOLUTIONS
 END OF IMS OPTIONS

 PROCESSING IMS NONLINEAR
 END OF IMS NONLINEAR DATA
 ***UNDER-RELAXATION WILL NOT BE USED***
 
 ***IMS LINEAR SOLVER WILL BE USED***

 IMSLINEAR -- UNSTRUCTURED LINEAR SOLUTION PACKAGE, VERSION 8, 04/28/2017

 PROCESSING LINEAR DATA
 END OF LINEAR DATA
 
 OUTER ITERATION CONVERGENCE CRITERION    (DVCLOSE) =    0.100000E-04
 MAXIMUM NUMBER OF OUTER ITERATIONS        (MXITER) = 100
 SOLVER PRINTOUT INDEX                     (IPRIMS) = 1
 NONLINEAR ITERATION METHOD            (NONLINMETH) = 0
 LINEAR SOLUTION METHOD                   (LINMETH) = 1

       SOLUTION BY THE BICONJUGATE-GRADIENT STABILIZED METHOD
 ------------------------------------------------------------------
 MAXIMUM OF 100 CALLS OF SOLUTION ROUTINE
 MAXIMUM OF 100 INTERNAL ITERATIONS PER CALL TO SOLUTION ROUTINE
 LINEAR ACCELERATION METHOD            = BCGS      
 MATRIX PRECONDITIONING TYPE           = MOD. INCOMPLETE LU  
 MATRIX SCALING APPROACH               = NO SCALING          
 MATRIX REORDERING APPROACH            = ORIGINAL ORDERING        
 NUMBER OF ORTHOGONALIZATIONS          = 0
 HEAD CHANGE CRITERION FOR CLOSURE     =    0.10000E-05
 RESIDUAL CHANGE CRITERION FOR CLOSURE =    0.10000E+00
 RESIDUAL CONVERGENCE OPTION           = 0
 RESIDUAL CONVERGENCE NORM             = INFINITY NORM   
 RELAXATION FACTOR                     =    0.99000E+00



1
                            STRESS PERIOD NO.    1, LENGTH =   0.000000    
                            -----------------------------------------------

                              NUMBER OF TIME STEPS =     1

                               MULTIPLIER FOR DELT =     1.000

                            INITIAL TIME STEP SIZE =   0.000000    

 OUTER ITERATION SUMMARY
 ----------------------------------------------------------------------------------------------------------
                                OUTER      INNER                    STEP   MAXIMUM CHANGE MODEL-(CELLID) OR
 OUTER ITERATION STEP       ITERATION  ITERATION  MAXIMUM CHANGE SUCCESS             MODEL-PACKAGE-(NUMBER)
 ----------------------------------------------------------------------------------------------------------
 Model                              1         57      -19.968719                                1_GWF-(1,1)
 Model                              2         44       1.0278082                                1_GWF-(1,3)
 Model                              3         41     -0.20457655                             1_GWF-(1,2325)
 Model                              4         30 -7.81683463E-02                             1_GWF-(1,2771)
 Model                              5         15 -2.64491957E-04                                1_GWF-(1,3)
 Model                              6          6 -8.79026339E-06       *                       1_GWF-(1,11)
 ----------------------------------------------------------------------------------------------------------


 6 CALLS TO NUMERICAL SOLUTION IN TIME STEP 1 STRESS PERIOD 1
 193 TOTAL ITERATIONS
1
                            STRESS PERIOD NO.    2, LENGTH =   3653.000    
                            -----------------------------------------------

                              NUMBER OF TIME STEPS =   120

                               MULTIPLIER FOR DELT =     1.000

                            INITIAL TIME STEP SIZE =   30.44167    

 OUTER ITERATION SUMMARY
 ----------------------------------------------------------------------------------------------------------
                                OUTER      INNER                    STEP   MAXIMUM CHANGE MODEL-(CELLID) OR
 OUTER ITERATION STEP       ITERATION  ITERATION  MAXIMUM CHANGE SUCCESS             MODEL-PACKAGE-(NUMBER)
 ----------------------------------------------------------------------------------------------------------
 Model                              1         33      0.60986928                              1_GWF-(3,710)
 Model                              2         18 -1.44585176E-02                             1_GWF-(1,3259)
 Model                              3          6  3.56131113E-05                             1_GWF-(1,3244)
 Model                              4          2 -1.27384423E-06       *                     1_GWF-(3,4981)
 ----------------------------------------------------------------------------------------------------------


 4 CALLS TO NUMERICAL SOLUTION IN TIME STEP 1 STRESS PERIOD 2
 59 TOTAL ITERATIONS

 OUTER ITERATION SUMMARY
 ----------------------------------------------------------------------------------------------------------
                                OUTER      INNER                    STEP   MAXIMUM CHANGE MODEL-(CELLID) OR
 OUTER ITERATION STEP       ITERATION  ITERATION  MAXIMUM CHANGE SUCCESS             MODEL-PACKAGE-(NUMBER)
 ----------------------------------------------------------------------------------------------------------
 Model                              1         36      0.13405620                             1_GWF-(1,3937)
 Model                              2         18 -8.07655399E-03                             1_GWF-(1,1282)
 Model                              3          4 -1.99747864E-05                             1_GWF-(1,4588)
 Model                              4          2 -1.86026017E-06       *                     1_GWF-(3,4376)
 ----------------------------------------------------------------------------------------------------------


 4 CALLS TO NUMERICAL SOLUTION IN TIME STEP 2 STRESS PERIOD 2
 60 TOTAL ITERATIONS

 OUTER ITERATION SUMMARY
 ----------------------------------------------------------------------------------------------------------
                                OUTER      INNER                    STEP   MAXIMUM CHANGE MODEL-(CELLID) OR
 OUTER ITERATION STEP       ITERATION  ITERATION  MAXIMUM CHANGE SUCCESS             MODEL-PACKAGE-(NUMBER)
 ----------------------------------------------------------------------------------------------------------
 Model                              1         30     -0.13680588                              1_GWF-(3,710)
 Model                              2         14  8.10041664E-04                             1_GWF-(1,4189)
 Model                              3          7 -1.50664226E-05                             1_GWF-(1,4106)
 Model                              4          1 -9.50904820E-07       *                       1_GWF-(3,70)
 ----------------------------------------------------------------------------------------------------------


 4 CALLS TO NUMERICAL SOLUTION IN TIME STEP 3 STRESS PERIOD 2
 52 TOTAL ITERATIONS

 OUTER ITERATION SUMMARY
 ----------------------------------------------------------------------------------------------------------
                                OUTER      INNER                    STEP   MAXIMUM CHANGE MODEL-(CELLID) OR
 OUTER ITERATION STEP       ITERATION  ITERATION  MAXIMUM CHANGE SUCCESS             MODEL-PACKAGE-(NUMBER)
 ----------------------------------------------------------------------------------------------------------
 Model                              1         33      0.15129781                              1_GWF-(3,710)
 Model                              2         10 -3.41957476E-04                             1_GWF-(1,3939)
 Model                              3          4 -5.19905156E-06       *                     1_GWF-(1,4666)
 ----------------------------------------------------------------------------------------------------------


 3 CALLS TO NUMERICAL SOLUTION IN TIME STEP 4 STRESS PERIOD 2
 47 TOTAL ITERATIONS

 OUTER ITERATION SUMMARY
 ----------------------------------------------------------------------------------------------------------
                                OUTER      INNER                    STEP   MAXIMUM CHANGE MODEL-(CELLID) OR
 OUTER ITERATION STEP       ITERATION  ITERATION  MAXIMUM CHANGE SUCCESS             MODEL-PACKAGE-(NUMBER)
 ----------------------------------------------------------------------------------------------------------
 Model                              1         32      0.13787147                             1_GWF-(1,4094)
 Model                              2         15 -5.63760612E-03                             1_GWF-(1,3265)
 Model                              3          7 -1.96677662E-05                             1_GWF-(1,4588)
 Model                              4          2 -2.12055916E-06       *                     1_GWF-(3,4981)
 ----------------------------------------------------------------------------------------------------------


 4 CALLS TO NUMERICAL SOLUTION IN TIME STEP 5 STRESS PERIOD 2
 56 TOTAL ITERATIONS

 OUTER ITERATION SUMMARY
 ----------------------------------------------------------------------------------------------------------
                                OUTER      INNER                    STEP   MAXIMUM CHANGE MODEL-(CELLID) OR
 OUTER ITERATION STEP       ITERATION  ITERATION  MAXIMUM CHANGE SUCCESS             MODEL-PACKAGE-(NUMBER)
 ----------------------------------------------------------------------------------------------------------
 Model                              1         39      -1.3994880                              1_GWF-(3,710)
 Model                              2         19  1.40523548E-03                              1_GWF-(1,708)
 Model                              3          4 -1.64256585E-05                             1_GWF-(1,4187)
 Model                              4          3  1.12944562E-06       *                     1_GWF-(3,4756)
 ----------------------------------------------------------------------------------------------------------


 4 CALLS TO NUMERICAL SOLUTION IN TIME STEP 6 STRESS PERIOD 2
 65 TOTAL ITERATIONS

 OUTER ITERATION SUMMARY
 ----------------------------------------------------------------------------------------------------------
                                OUTER      INNER                    STEP   MAXIMUM CHANGE MODEL-(CELLID) OR
 OUTER ITERATION STEP       ITERATION  ITERATION  MAXIMUM CHANGE SUCCESS             MODEL-PACKAGE-(NUMBER)
 ----------------------------------------------------------------------------------------------------------
 Model                              1         34      -2.3691399                             1_GWF-(3,4261)
 Model                              2         19 -1.02101353E-02                             1_GWF-(1,3265)
 Model                              3          8  2.67474603E-05                             1_GWF-(1,3692)
 Model                              4          1  9.46095810E-07       *                     1_GWF-(3,4836)
 ----------------------------------------------------------------------------------------------------------


 4 CALLS TO NUMERICAL SOLUTION IN TIME STEP 7 STRESS PERIOD 2
 62 TOTAL ITERATIONS

 OUTER ITERATION SUMMARY
 ----------------------------------------------------------------------------------------------------------
                                OUTER      INNER                    STEP   MAXIMUM CHANGE MODEL-(CELLID) OR
 OUTER ITERATION STEP       ITERATION  ITERATION  MAXIMUM CHANGE SUCCESS             MODEL-PACKAGE-(NUMBER)
 ----------------------------------------------------------------------------------------------------------
 Model                              1         34     -0.83151742                             1_GWF-(3,4261)
 Model                              2         21  1.62206496E-03                             1_GWF-(1,2797)
 Model                              3          8  2.25494798E-05                             1_GWF-(1,4588)
 Model                              4          1  6.95302134E-07       *                     1_GWF-(3,4980)
 ----------------------------------------------------------------------------------------------------------


 4 CALLS TO NUMERICAL SOLUTION IN TIME STEP 8 STRESS PERIOD 2
 64 TOTAL ITERATIONS

 OUTER ITERATION SUMMARY
 ----------------------------------------------------------------------------------------------------------
                                OUTER      INNER                    STEP   MAXIMUM CHANGE MODEL-(CELLID) OR
 OUTER ITERATION STEP       ITERATION  ITERATION  MAXIMUM CHANGE SUCCESS             MODEL-PACKAGE-(NUMBER)
 ----------------------------------------------------------------------------------------------------------
 Model                              1         34       1.3620965                             1_GWF-(3,4261)
 Model                              2         13 -1.60563624E-02                             1_GWF-(1,3259)
 Model                              3          6  6.53285930E-05                             1_GWF-(1,3244)
 Model                              4          2  3.44261122E-06       *                     1_GWF-(2,3259)
 ----------------------------------------------------------------------------------------------------------


 4 CALLS TO NUMERICAL SOLUTION IN TIME STEP 9 STRESS PERIOD 2
 55 TOTAL ITERATIONS

 OUTER ITERATION SUMMARY
 ----------------------------------------------------------------------------------------------------------
                                OUTER      INNER                    STEP   MAXIMUM CHANGE MODEL-(CELLID) OR
 OUTER ITERATION STEP       ITERATION  ITERATION  MAXIMUM CHANGE SUCCESS             MODEL-PACKAGE-(NUMBER)
 ----------------------------------------------------------------------------------------------------------
 Model                              1         30      0.89075178                             1_GWF-(3,4261)
 Model                              2         14 -1.05661196E-03                             1_GWF-(1,3247)
 Model                              3          5  1.51610280E-05                             1_GWF-(1,4435)
 Model                              4          1  6.31611087E-07       *                       1_GWF-(3,70)
 ----------------------------------------------------------------------------------------------------------


 4 CALLS TO NUMERICAL SOLUTION IN TIME STEP 10 STRESS PERIOD 2
 50 TOTAL ITERATIONS

 OUTER ITERATION SUMMARY
 ----------------------------------------------------------------------------------------------------------
                                OUTER      INNER                    STEP   MAXIMUM CHANGE MODEL-(CELLID) OR
 OUTER ITERATION STEP       ITERATION  ITERATION  MAXIMUM CHANGE SUCCESS             MODEL-PACKAGE-(NUMBER)
 ----------------------------------------------------------------------------------------------------------
 Model                              1         32      0.44417996                              1_GWF-(3,710)
 Model                              2         14  1.41195046E-03                             1_GWF-(1,2798)
 Model                              3          4  1.24407287E-05                             1_GWF-(1,4666)
 Model                              4          2 -8.92377344E-07       *                       1_GWF-(3,70)
 ----------------------------------------------------------------------------------------------------------


 4 CALLS TO NUMERICAL SOLUTION IN TIME STEP 11 STRESS PERIOD 2
 52 TOTAL ITERATIONS

 OUTER ITERATION SUMMARY
 ----------------------------------------------------------------------------------------------------------
                                OUTER      INNER                    STEP   MAXIMUM CHANGE MODEL-(CELLID) OR
 OUTER ITERATION STEP       ITERATION  ITERATION  MAXIMUM CHANGE SUCCESS             MODEL-PACKAGE-(NUMBER)
 ----------------------------------------------------------------------------------------------------------
 Model                              1         34      0.53582786                             1_GWF-(1,1985)
 Model                              2         16  2.54254302E-03                             1_GWF-(1,2798)
 Model                              3          6 -2.10450404E-05                             1_GWF-(1,2798)
 Model                              4          1 -4.10040542E-07       *                     1_GWF-(1,2312)
 ----------------------------------------------------------------------------------------------------------


 4 CALLS TO NUMERICAL SOLUTION IN TIME STEP 12 STRESS PERIOD 2
 57 TOTAL ITERATIONS

 OUTER ITERATION SUMMARY
 ----------------------------------------------------------------------------------------------------------
                                OUTER      INNER                    STEP   MAXIMUM CHANGE MODEL-(CELLID) OR
 OUTER ITERATION STEP       ITERATION  ITERATION  MAXIMUM CHANGE SUCCESS             MODEL-PACKAGE-(NUMBER)
 ----------------------------------------------------------------------------------------------------------
 Model                              1         35      0.38724508                              1_GWF-(1,638)
 Model                              2         21 -3.02645881E-03                              1_GWF-(1,635)
 Model                              3          8  2.61917607E-05                             1_GWF-(1,4350)
 Model                              4          1 -9.01712653E-07       *                       1_GWF-(3,70)
 ----------------------------------------------------------------------------------------------------------


 4 CALLS TO NUMERICAL SOLUTION IN TIME STEP 13 STRESS PERIOD 2
 65 TOTAL ITERATIONS

 OUTER ITERATION SUMMARY
 ----------------------------------------------------------------------------------------------------------
                                OUTER      INNER                    STEP   MAXIMUM CHANGE MODEL-(CELLID) OR
 OUTER ITERATION STEP       ITERATION  ITERATION  MAXIMUM CHANGE SUCCESS             MODEL-PACKAGE-(NUMBER)
 ----------------------------------------------------------------------------------------------------------
 Model                              1         32      0.17967895                             1_GWF-(1,4017)
 Model                              2         25 -1.47683814E-03                             1_GWF-(1,4433)
 Model                              3          6 -2.33326490E-05                             1_GWF-(1,4436)
 Model                              4          1 -8.55925009E-07       *                       1_GWF-(3,70)
 ----------------------------------------------------------------------------------------------------------


 4 CALLS TO NUMERICAL SOLUTION IN TIME STEP 14 STRESS PERIOD 2
 64 TOTAL ITERATIONS

 OUTER ITERATION SUMMARY
 ----------------------------------------------------------------------------------------------------------
                                OUTER      INNER                    STEP   MAXIMUM CHANGE MODEL-(CELLID) OR
 OUTER ITERATION STEP       ITERATION  ITERATION  MAXIMUM CHANGE SUCCESS             MODEL-PACKAGE-(NUMBER)
 ----------------------------------------------------------------------------------------------------------
 Model                              1         32      0.30332335                             1_GWF-(1,4017)
 Model                              2         22 -5.13643294E-02                             1_GWF-(1,3259)
 Model                              3          9  1.49420317E-04                             1_GWF-(1,3244)
 Model                              4          2  1.41599853E-06       *                     1_GWF-(1,3253)
 ----------------------------------------------------------------------------------------------------------


 4 CALLS TO NUMERICAL SOLUTION IN TIME STEP 15 STRESS PERIOD 2
 65 TOTAL ITERATIONS

 OUTER ITERATION SUMMARY
 ----------------------------------------------------------------------------------------------------------
                                OUTER      INNER                    STEP   MAXIMUM CHANGE MODEL-(CELLID) OR
 OUTER ITERATION STEP       ITERATION  ITERATION  MAXIMUM CHANGE SUCCESS             MODEL-PACKAGE-(NUMBER)
 ----------------------------------------------------------------------------------------------------------
 Model                              1         31      0.15255515                             1_GWF-(1,4959)
 Model                              2         14 -1.29929687E-03                             1_GWF-(1,3939)
 Model                              3          7 -2.17541714E-05                             1_GWF-(1,4667)
 Model                              4          1 -7.61724834E-07       *                       1_GWF-(3,70)
 ----------------------------------------------------------------------------------------------------------


 4 CALLS TO NUMERICAL SOLUTION IN TIME STEP 16 STRESS PERIOD 2
 53 TOTAL ITERATIONS

 OUTER ITERATION SUMMARY
 ----------------------------------------------------------------------------------------------------------
                                OUTER      INNER                    STEP   MAXIMUM CHANGE MODEL-(CELLID) OR
 OUTER ITERATION STEP       ITERATION  ITERATION  MAXIMUM CHANGE SUCCESS             MODEL-PACKAGE-(NUMBER)
 ----------------------------------------------------------------------------------------------------------
 Model                              1         27 -7.14282300E-02                              1_GWF-(1,638)
 Model                              2         16  1.35813058E-03                             1_GWF-(1,4189)
 Model                              3          4 -2.50747873E-05                             1_GWF-(1,4187)
 Model                              4          4  3.89916556E-06       *                     1_GWF-(3,4836)
 ----------------------------------------------------------------------------------------------------------


 4 CALLS TO NUMERICAL SOLUTION IN TIME STEP 17 STRESS PERIOD 2
 51 TOTAL ITERATIONS

 OUTER ITERATION SUMMARY
 ----------------------------------------------------------------------------------------------------------
                                OUTER      INNER                    STEP   MAXIMUM CHANGE MODEL-(CELLID) OR
 OUTER ITERATION STEP       ITERATION  ITERATION  MAXIMUM CHANGE SUCCESS             MODEL-PACKAGE-(NUMBER)
 ----------------------------------------------------------------------------------------------------------
 Model                              1         32     -0.59232601                              1_GWF-(3,710)
 Model                              2         15  1.41819729E-03                             1_GWF-(1,4352)
 Model                              3          7 -2.04076828E-05                             1_GWF-(1,4269)
 Model                              4          3  2.89510236E-06       *                     1_GWF-(3,4981)
 ----------------------------------------------------------------------------------------------------------


 4 CALLS TO NUMERICAL SOLUTION IN TIME STEP 18 STRESS PERIOD 2
 57 TOTAL ITERATIONS

 OUTER ITERATION SUMMARY
 ----------------------------------------------------------------------------------------------------------
                                OUTER      INNER                    STEP   MAXIMUM CHANGE MODEL-(CELLID) OR
 OUTER ITERATION STEP       ITERATION  ITERATION  MAXIMUM CHANGE SUCCESS             MODEL-PACKAGE-(NUMBER)
 ----------------------------------------------------------------------------------------------------------
 Model                              1         34     -0.24269770                              1_GWF-(3,710)
 Model                              2         18 -5.87549326E-03                             1_GWF-(1,3265)
 Model                              3          7  1.78042719E-05                             1_GWF-(1,4354)
 Model                              4          1  9.17226672E-07       *                     1_GWF-(3,4831)
 ----------------------------------------------------------------------------------------------------------


 4 CALLS TO NUMERICAL SOLUTION IN TIME STEP 19 STRESS PERIOD 2
 60 TOTAL ITERATIONS

 OUTER ITERATION SUMMARY
 ----------------------------------------------------------------------------------------------------------
                                OUTER      INNER                    STEP   MAXIMUM CHANGE MODEL-(CELLID) OR
 OUTER ITERATION STEP       ITERATION  ITERATION  MAXIMUM CHANGE SUCCESS             MODEL-PACKAGE-(NUMBER)
 ----------------------------------------------------------------------------------------------------------
 Model                              1         31     -0.10634779                              1_GWF-(1,710)
 Model                              2         15  9.58290772E-04                             1_GWF-(1,4512)
 Model                              3          9  1.70513343E-05                             1_GWF-(1,4436)
 Model                              4          2  1.38556079E-06       *                     1_GWF-(3,4981)
 ----------------------------------------------------------------------------------------------------------


 4 CALLS TO NUMERICAL SOLUTION IN TIME STEP 20 STRESS PERIOD 2
 57 TOTAL ITERATIONS

 OUTER ITERATION SUMMARY
 ----------------------------------------------------------------------------------------------------------
                                OUTER      INNER                    STEP   MAXIMUM CHANGE MODEL-(CELLID) OR
 OUTER ITERATION STEP       ITERATION  ITERATION  MAXIMUM CHANGE SUCCESS             MODEL-PACKAGE-(NUMBER)
 ----------------------------------------------------------------------------------------------------------
 Model                              1         32      0.15890364                              1_GWF-(3,710)
 Model                              2         16  7.40625159E-04                             1_GWF-(1,4960)
 Model                              3          5  1.47062889E-05                             1_GWF-(1,4667)
 Model                              4          1  8.78751464E-07       *                       1_GWF-(3,70)
 ----------------------------------------------------------------------------------------------------------


 4 CALLS TO NUMERICAL SOLUTION IN TIME STEP 21 STRESS PERIOD 2
 54 TOTAL ITERATIONS

 OUTER ITERATION SUMMARY
 ----------------------------------------------------------------------------------------------------------
                                OUTER      INNER                    STEP   MAXIMUM CHANGE MODEL-(CELLID) OR
 OUTER ITERATION STEP       ITERATION  ITERATION  MAXIMUM CHANGE SUCCESS             MODEL-PACKAGE-(NUMBER)
 ----------------------------------------------------------------------------------------------------------
 Model                              1         34      0.52793481                              1_GWF-(3,710)
 Model                              2         19 -1.35777696E-03                             1_GWF-(1,2764)
 Model                              3          6  1.42051538E-05                             1_GWF-(1,4187)
 Model                              4          1 -4.41340205E-07       *                     1_GWF-(3,4314)
 ----------------------------------------------------------------------------------------------------------


 4 CALLS TO NUMERICAL SOLUTION IN TIME STEP 22 STRESS PERIOD 2
 60 TOTAL ITERATIONS

 OUTER ITERATION SUMMARY
 ----------------------------------------------------------------------------------------------------------
                                OUTER      INNER                    STEP   MAXIMUM CHANGE MODEL-(CELLID) OR
 OUTER ITERATION STEP       ITERATION  ITERATION  MAXIMUM CHANGE SUCCESS             MODEL-PACKAGE-(NUMBER)
 ----------------------------------------------------------------------------------------------------------
 Model                              1         36      0.20019497                              1_GWF-(1,637)
 Model                              2         17 -3.11436299E-03                             1_GWF-(1,3265)
 Model                              3          6 -2.65563258E-05                             1_GWF-(1,4436)
 Model                              4          3 -2.99234487E-06       *                     1_GWF-(3,4981)
 ----------------------------------------------------------------------------------------------------------


 4 CALLS TO NUMERICAL SOLUTION IN TIME STEP 23 STRESS PERIOD 2
 62 TOTAL ITERATIONS

 OUTER ITERATION SUMMARY
 ----------------------------------------------------------------------------------------------------------
                                OUTER      INNER                    STEP   MAXIMUM CHANGE MODEL-(CELLID) OR
 OUTER ITERATION STEP       ITERATION  ITERATION  MAXIMUM CHANGE SUCCESS             MODEL-PACKAGE-(NUMBER)
 ----------------------------------------------------------------------------------------------------------
 Model                              1         36      0.62163542                             1_GWF-(1,4176)
 Model                              2         19 -1.14679089E-02                             1_GWF-(1,3263)
 Model                              3         11 -1.73927540E-03                             1_GWF-(1,3262)
 Model                              4          2  4.62190143E-06       *                     1_GWF-(1,3251)
 ----------------------------------------------------------------------------------------------------------


 4 CALLS TO NUMERICAL SOLUTION IN TIME STEP 24 STRESS PERIOD 2
 68 TOTAL ITERATIONS

 OUTER ITERATION SUMMARY
 ----------------------------------------------------------------------------------------------------------
                                OUTER      INNER                    STEP   MAXIMUM CHANGE MODEL-(CELLID) OR
 OUTER ITERATION STEP       ITERATION  ITERATION  MAXIMUM CHANGE SUCCESS             MODEL-PACKAGE-(NUMBER)
 ----------------------------------------------------------------------------------------------------------
 Model                              1         35      0.53715896                             1_GWF-(1,4016)
 Model                              2         21     -0.26663322                              1_GWF-(1,186)
 Model                              3         13 -3.94632708E-02                              1_GWF-(1,187)
 Model                              4          3 -1.02399319E-04                              1_GWF-(1,188)
 Model                              5          3  4.61467235E-06       *                      1_GWF-(2,188)
 ----------------------------------------------------------------------------------------------------------


 5 CALLS TO NUMERICAL SOLUTION IN TIME STEP 25 STRESS PERIOD 2
 75 TOTAL ITERATIONS

 OUTER ITERATION SUMMARY
 ----------------------------------------------------------------------------------------------------------
                                OUTER      INNER                    STEP   MAXIMUM CHANGE MODEL-(CELLID) OR
 OUTER ITERATION STEP       ITERATION  ITERATION  MAXIMUM CHANGE SUCCESS             MODEL-PACKAGE-(NUMBER)
 ----------------------------------------------------------------------------------------------------------
 Model                              1         33      0.18229234                             1_GWF-(1,4431)
 Model                              2         18 -3.07687209E-02                              1_GWF-(1,187)
 Model                              3          7 -5.72397494E-05                             1_GWF-(1,4106)
 Model                              4          2 -1.14771647E-06       *                     1_GWF-(1,4272)
 ----------------------------------------------------------------------------------------------------------


 4 CALLS TO NUMERICAL SOLUTION IN TIME STEP 26 STRESS PERIOD 2
 60 TOTAL ITERATIONS

 OUTER ITERATION SUMMARY
 ----------------------------------------------------------------------------------------------------------
                                OUTER      INNER                    STEP   MAXIMUM CHANGE MODEL-(CELLID) OR
 OUTER ITERATION STEP       ITERATION  ITERATION  MAXIMUM CHANGE SUCCESS             MODEL-PACKAGE-(NUMBER)
 ----------------------------------------------------------------------------------------------------------
 Model                              1         36      0.11285336                                1_GWF-(1,5)
 Model                              2         18  2.22630315E-03                             1_GWF-(1,4189)
 Model                              3          9 -4.48139834E-05                             1_GWF-(1,4269)
 Model                              4          2  2.51005038E-06       *                     1_GWF-(3,4981)
 ----------------------------------------------------------------------------------------------------------


 4 CALLS TO NUMERICAL SOLUTION IN TIME STEP 27 STRESS PERIOD 2
 65 TOTAL ITERATIONS

 OUTER ITERATION SUMMARY
 ----------------------------------------------------------------------------------------------------------
                                OUTER      INNER                    STEP   MAXIMUM CHANGE MODEL-(CELLID) OR
 OUTER ITERATION STEP       ITERATION  ITERATION  MAXIMUM CHANGE SUCCESS             MODEL-PACKAGE-(NUMBER)
 ----------------------------------------------------------------------------------------------------------
 Model                              1         35  9.58677186E-02                                1_GWF-(1,6)
 Model                              2         18  1.47085596E-03                             1_GWF-(1,4189)
 Model                              3          7 -2.95867577E-05                             1_GWF-(1,4269)
 Model                              4          1  7.53252209E-07       *                       1_GWF-(3,66)
 ----------------------------------------------------------------------------------------------------------


 4 CALLS TO NUMERICAL SOLUTION IN TIME STEP 28 STRESS PERIOD 2
 61 TOTAL ITERATIONS

 OUTER ITERATION SUMMARY
 ----------------------------------------------------------------------------------------------------------
                                OUTER      INNER                    STEP   MAXIMUM CHANGE MODEL-(CELLID) OR
 OUTER ITERATION STEP       ITERATION  ITERATION  MAXIMUM CHANGE SUCCESS             MODEL-PACKAGE-(NUMBER)
 ----------------------------------------------------------------------------------------------------------
 Model                              1         37     -0.78209495                              1_GWF-(3,710)
 Model                              2         26 -2.65499263E-02                              1_GWF-(1,338)
 Model                              3         16 -7.09720288E-05                              1_GWF-(1,338)
 Model                              4          2 -1.75707663E-06       *                     1_GWF-(1,4271)
 ----------------------------------------------------------------------------------------------------------


 4 CALLS TO NUMERICAL SOLUTION IN TIME STEP 29 STRESS PERIOD 2
 81 TOTAL ITERATIONS

 OUTER ITERATION SUMMARY
 ----------------------------------------------------------------------------------------------------------
                                OUTER      INNER                    STEP   MAXIMUM CHANGE MODEL-(CELLID) OR
 OUTER ITERATION STEP       ITERATION  ITERATION  MAXIMUM CHANGE SUCCESS             MODEL-PACKAGE-(NUMBER)
 ----------------------------------------------------------------------------------------------------------
 Model                              1         31      -1.3153175                              1_GWF-(3,710)
 Model                              2         19 -3.78720048E-02                              1_GWF-(1,187)
 Model                              3          8 -1.76084430E-03                              1_GWF-(1,265)
 Model                              4          2  3.62651035E-06       *                      1_GWF-(1,264)
 ----------------------------------------------------------------------------------------------------------


 4 CALLS TO NUMERICAL SOLUTION IN TIME STEP 30 STRESS PERIOD 2
 60 TOTAL ITERATIONS

 OUTER ITERATION SUMMARY
 ----------------------------------------------------------------------------------------------------------
                                OUTER      INNER                    STEP   MAXIMUM CHANGE MODEL-(CELLID) OR
 OUTER ITERATION STEP       ITERATION  ITERATION  MAXIMUM CHANGE SUCCESS             MODEL-PACKAGE-(NUMBER)
 ----------------------------------------------------------------------------------------------------------
 Model                              1         39      -2.8445296                             1_GWF-(3,4261)
 Model                              2         20 -2.10000810E-02                             1_GWF-(1,3260)
 Model                              3          8  1.27530880E-04                             1_GWF-(1,3246)
 Model                              4          2  1.91677641E-06       *                     1_GWF-(3,4981)
 ----------------------------------------------------------------------------------------------------------


 4 CALLS TO NUMERICAL SOLUTION IN TIME STEP 31 STRESS PERIOD 2
 69 TOTAL ITERATIONS

 OUTER ITERATION SUMMARY
 ----------------------------------------------------------------------------------------------------------
                                OUTER      INNER                    STEP   MAXIMUM CHANGE MODEL-(CELLID) OR
 OUTER ITERATION STEP       ITERATION  ITERATION  MAXIMUM CHANGE SUCCESS             MODEL-PACKAGE-(NUMBER)
 ----------------------------------------------------------------------------------------------------------
 Model                              1         36     -0.71827716                             1_GWF-(1,1985)
 Model                              2         17  2.05525933E-03                             1_GWF-(1,4960)
 Model                              3          9  4.33482640E-05                             1_GWF-(1,4667)
 Model                              4          2  1.91814695E-06       *                     1_GWF-(3,4921)
 ----------------------------------------------------------------------------------------------------------


 4 CALLS TO NUMERICAL SOLUTION IN TIME STEP 32 STRESS PERIOD 2
 64 TOTAL ITERATIONS

 OUTER ITERATION SUMMARY
 ----------------------------------------------------------------------------------------------------------
                                OUTER      INNER                    STEP   MAXIMUM CHANGE MODEL-(CELLID) OR
 OUTER ITERATION STEP       ITERATION  ITERATION  MAXIMUM CHANGE SUCCESS             MODEL-PACKAGE-(NUMBER)
 ----------------------------------------------------------------------------------------------------------
 Model                              1         35       1.3521769                             1_GWF-(3,4261)
 Model                              2         17 -1.73832172E-02                              1_GWF-(1,186)
 Model                              3          6 -3.80332560E-05                              1_GWF-(1,187)
 Model                              4          3 -1.83677130E-06       *                       1_GWF-(3,70)
 ----------------------------------------------------------------------------------------------------------


 4 CALLS TO NUMERICAL SOLUTION IN TIME STEP 33 STRESS PERIOD 2
 61 TOTAL ITERATIONS

 OUTER ITERATION SUMMARY
 ----------------------------------------------------------------------------------------------------------
                                OUTER      INNER                    STEP   MAXIMUM CHANGE MODEL-(CELLID) OR
 OUTER ITERATION STEP       ITERATION  ITERATION  MAXIMUM CHANGE SUCCESS             MODEL-PACKAGE-(NUMBER)
 ----------------------------------------------------------------------------------------------------------
 Model                              1         40      0.99805972                             1_GWF-(3,4261)
 Model                              2         14  2.25205623E-03                             1_GWF-(1,2798)
 Model                              3          7  2.38364646E-05                             1_GWF-(1,4106)
 Model                              4          1  5.38255975E-07       *                       1_GWF-(3,61)
 ----------------------------------------------------------------------------------------------------------


 4 CALLS TO NUMERICAL SOLUTION IN TIME STEP 34 STRESS PERIOD 2
 62 TOTAL ITERATIONS

 OUTER ITERATION SUMMARY
 ----------------------------------------------------------------------------------------------------------
                                OUTER      INNER                    STEP   MAXIMUM CHANGE MODEL-(CELLID) OR
 OUTER ITERATION STEP       ITERATION  ITERATION  MAXIMUM CHANGE SUCCESS             MODEL-PACKAGE-(NUMBER)
 ----------------------------------------------------------------------------------------------------------
 Model                              1         34      0.19615502                             1_GWF-(1,2343)
 Model                              2         16 -5.49264433E-03                              1_GWF-(1,186)
 Model                              3          2  1.69624981E-05                             1_GWF-(1,4106)
 Model                              4          4 -2.69370457E-06       *                     1_GWF-(2,4272)
 ----------------------------------------------------------------------------------------------------------


 4 CALLS TO NUMERICAL SOLUTION IN TIME STEP 35 STRESS PERIOD 2
 56 TOTAL ITERATIONS

 OUTER ITERATION SUMMARY
 ----------------------------------------------------------------------------------------------------------
                                OUTER      INNER                    STEP   MAXIMUM CHANGE MODEL-(CELLID) OR
 OUTER ITERATION STEP       ITERATION  ITERATION  MAXIMUM CHANGE SUCCESS             MODEL-PACKAGE-(NUMBER)
 ----------------------------------------------------------------------------------------------------------
 Model                              1         35      0.20433214                             1_GWF-(1,4176)
 Model                              2         25 -7.07840668E-02                              1_GWF-(1,265)
 Model                              3          6 -3.54075710E-05                              1_GWF-(1,267)
 Model                              4          2  1.01361940E-06       *                     1_GWF-(2,4272)
 ----------------------------------------------------------------------------------------------------------


 4 CALLS TO NUMERICAL SOLUTION IN TIME STEP 36 STRESS PERIOD 2
 68 TOTAL ITERATIONS

 OUTER ITERATION SUMMARY
 ----------------------------------------------------------------------------------------------------------
                                OUTER      INNER                    STEP   MAXIMUM CHANGE MODEL-(CELLID) OR
 OUTER ITERATION STEP       ITERATION  ITERATION  MAXIMUM CHANGE SUCCESS             MODEL-PACKAGE-(NUMBER)
 ----------------------------------------------------------------------------------------------------------
 Model                              1         36      0.16333625                             1_GWF-(1,4017)
 Model                              2         19 -4.83962585E-02                               1_GWF-(1,28)
 Model                              3          4 -2.95109488E-05                             1_GWF-(1,4588)
 Model                              4          3 -3.54631179E-06       *                       1_GWF-(3,70)
 ----------------------------------------------------------------------------------------------------------


 4 CALLS TO NUMERICAL SOLUTION IN TIME STEP 37 STRESS PERIOD 2
 62 TOTAL ITERATIONS

 OUTER ITERATION SUMMARY
 ----------------------------------------------------------------------------------------------------------
                                OUTER      INNER                    STEP   MAXIMUM CHANGE MODEL-(CELLID) OR
 OUTER ITERATION STEP       ITERATION  ITERATION  MAXIMUM CHANGE SUCCESS             MODEL-PACKAGE-(NUMBER)
 ----------------------------------------------------------------------------------------------------------
 Model                              1         30 -5.58022642E-02                              1_GWF-(1,339)
 Model                              2         17 -1.93692219E-02                              1_GWF-(1,264)
 Model                              3          8  3.29163964E-05                              1_GWF-(1,263)
 Model                              4          1 -3.11142529E-07       *                     1_GWF-(2,1877)
 ----------------------------------------------------------------------------------------------------------


 4 CALLS TO NUMERICAL SOLUTION IN TIME STEP 38 STRESS PERIOD 2
 56 TOTAL ITERATIONS

 OUTER ITERATION SUMMARY
 ----------------------------------------------------------------------------------------------------------
                                OUTER      INNER                    STEP   MAXIMUM CHANGE MODEL-(CELLID) OR
 OUTER ITERATION STEP       ITERATION  ITERATION  MAXIMUM CHANGE SUCCESS             MODEL-PACKAGE-(NUMBER)
 ----------------------------------------------------------------------------------------------------------
 Model                              1         32  8.88033318E-02                             1_GWF-(1,3936)
 Model                              2         13 -4.31373701E-03                               1_GWF-(1,27)
 Model                              3          5 -1.74685887E-05                             1_GWF-(1,4667)
 Model                              4          2 -2.40900745E-06       *                     1_GWF-(3,4981)
 ----------------------------------------------------------------------------------------------------------


 4 CALLS TO NUMERICAL SOLUTION IN TIME STEP 39 STRESS PERIOD 2
 52 TOTAL ITERATIONS

 OUTER ITERATION SUMMARY
 ----------------------------------------------------------------------------------------------------------
                                OUTER      INNER                    STEP   MAXIMUM CHANGE MODEL-(CELLID) OR
 OUTER ITERATION STEP       ITERATION  ITERATION  MAXIMUM CHANGE SUCCESS             MODEL-PACKAGE-(NUMBER)
 ----------------------------------------------------------------------------------------------------------
 Model                              1         35  9.02068248E-02                              1_GWF-(1,311)
 Model                              2         16 -1.65968629E-02                              1_GWF-(1,264)
 Model                              3          4 -1.78834639E-05                             1_GWF-(1,4667)
 Model                              4          3 -1.60473384E-06       *                     1_GWF-(3,4980)
 ----------------------------------------------------------------------------------------------------------


 4 CALLS TO NUMERICAL SOLUTION IN TIME STEP 40 STRESS PERIOD 2
 58 TOTAL ITERATIONS

 OUTER ITERATION SUMMARY
 ----------------------------------------------------------------------------------------------------------
                                OUTER      INNER                    STEP   MAXIMUM CHANGE MODEL-(CELLID) OR
 OUTER ITERATION STEP       ITERATION  ITERATION  MAXIMUM CHANGE SUCCESS             MODEL-PACKAGE-(NUMBER)
 ----------------------------------------------------------------------------------------------------------
 Model                              1         40     -0.51003918                              1_GWF-(3,710)
 Model                              2         14  7.73700828E-04                              1_GWF-(1,709)
 Model                              3          7 -1.33272566E-05                             1_GWF-(1,4106)
 Model                              4          1  4.54552250E-07       *                     1_GWF-(3,4980)
 ----------------------------------------------------------------------------------------------------------


 4 CALLS TO NUMERICAL SOLUTION IN TIME STEP 41 STRESS PERIOD 2
 62 TOTAL ITERATIONS

 OUTER ITERATION SUMMARY
 ----------------------------------------------------------------------------------------------------------
                                OUTER      INNER                    STEP   MAXIMUM CHANGE MODEL-(CELLID) OR
 OUTER ITERATION STEP       ITERATION  ITERATION  MAXIMUM CHANGE SUCCESS             MODEL-PACKAGE-(NUMBER)
 ----------------------------------------------------------------------------------------------------------
 Model                              1         38      -1.7872096                              1_GWF-(3,710)
 Model                              2         18 -4.86410000E-02                              1_GWF-(1,264)
 Model                              3         16 -6.46668980E-03                              1_GWF-(1,185)
 Model                              4          4  1.40424227E-05                              1_GWF-(1,184)
 Model                              5          1  1.63103678E-07       *                      1_GWF-(2,263)
 ----------------------------------------------------------------------------------------------------------


 5 CALLS TO NUMERICAL SOLUTION IN TIME STEP 42 STRESS PERIOD 2
 77 TOTAL ITERATIONS

 OUTER ITERATION SUMMARY
 ----------------------------------------------------------------------------------------------------------
                                OUTER      INNER                    STEP   MAXIMUM CHANGE MODEL-(CELLID) OR
 OUTER ITERATION STEP       ITERATION  ITERATION  MAXIMUM CHANGE SUCCESS             MODEL-PACKAGE-(NUMBER)
 ----------------------------------------------------------------------------------------------------------
 Model                              1         37      -2.4512507                             1_GWF-(3,4261)
 Model                              2         20 -1.78193861E-02                               1_GWF-(1,28)
 Model                              3          9  3.77841073E-05                               1_GWF-(1,27)
 Model                              4          1  7.83493789E-07       *                     1_GWF-(3,4981)
 ----------------------------------------------------------------------------------------------------------


 4 CALLS TO NUMERICAL SOLUTION IN TIME STEP 43 STRESS PERIOD 2
 67 TOTAL ITERATIONS

 OUTER ITERATION SUMMARY
 ----------------------------------------------------------------------------------------------------------
                                OUTER      INNER                    STEP   MAXIMUM CHANGE MODEL-(CELLID) OR
 OUTER ITERATION STEP       ITERATION  ITERATION  MAXIMUM CHANGE SUCCESS             MODEL-PACKAGE-(NUMBER)
 ----------------------------------------------------------------------------------------------------------
 Model                              1         32     -0.72880380                             1_GWF-(1,1985)
 Model                              2         17 -2.81348537E-02                              1_GWF-(1,186)
 Model                              3          7 -5.91063888E-05                              1_GWF-(1,187)
 Model                              4          3  1.76703401E-06       *                     1_GWF-(3,4836)
 ----------------------------------------------------------------------------------------------------------


 4 CALLS TO NUMERICAL SOLUTION IN TIME STEP 44 STRESS PERIOD 2
 59 TOTAL ITERATIONS

 OUTER ITERATION SUMMARY
 ----------------------------------------------------------------------------------------------------------
                                OUTER      INNER                    STEP   MAXIMUM CHANGE MODEL-(CELLID) OR
 OUTER ITERATION STEP       ITERATION  ITERATION  MAXIMUM CHANGE SUCCESS             MODEL-PACKAGE-(NUMBER)
 ----------------------------------------------------------------------------------------------------------
 Model                              1         35     -0.76164964                             1_GWF-(1,2343)
 Model                              2         18 -4.00689992E-02                              1_GWF-(1,110)
 Model                              3         10  8.87178349E-05                              1_GWF-(1,109)
 Model                              4          1 -4.89490162E-07       *                     1_GWF-(1,4434)
 ----------------------------------------------------------------------------------------------------------


 4 CALLS TO NUMERICAL SOLUTION IN TIME STEP 45 STRESS PERIOD 2
 64 TOTAL ITERATIONS

 OUTER ITERATION SUMMARY
 ----------------------------------------------------------------------------------------------------------
                                OUTER      INNER                    STEP   MAXIMUM CHANGE MODEL-(CELLID) OR
 OUTER ITERATION STEP       ITERATION  ITERATION  MAXIMUM CHANGE SUCCESS             MODEL-PACKAGE-(NUMBER)
 ----------------------------------------------------------------------------------------------------------
 Model                              1         33       1.9951744                             1_GWF-(3,4261)
 Model                              2         14 -8.50669294E-03                             1_GWF-(1,3259)
 Model                              3          5  4.14472923E-05                             1_GWF-(1,3244)
 Model                              4          3 -3.57219282E-06       *                       1_GWF-(3,70)
 ----------------------------------------------------------------------------------------------------------


 4 CALLS TO NUMERICAL SOLUTION IN TIME STEP 46 STRESS PERIOD 2
 55 TOTAL ITERATIONS

 OUTER ITERATION SUMMARY
 ----------------------------------------------------------------------------------------------------------
                                OUTER      INNER                    STEP   MAXIMUM CHANGE MODEL-(CELLID) OR
 OUTER ITERATION STEP       ITERATION  ITERATION  MAXIMUM CHANGE SUCCESS             MODEL-PACKAGE-(NUMBER)
 ----------------------------------------------------------------------------------------------------------
 Model                              1         35      0.87693731                             1_GWF-(1,1985)
 Model                              2         14  3.53896614E-03                             1_GWF-(1,2798)
 Model                              3          7 -2.12199647E-05                             1_GWF-(1,2798)
 Model                              4          1 -6.01226731E-07       *                       1_GWF-(3,52)
 ----------------------------------------------------------------------------------------------------------


 4 CALLS TO NUMERICAL SOLUTION IN TIME STEP 47 STRESS PERIOD 2
 57 TOTAL ITERATIONS

 OUTER ITERATION SUMMARY
 ----------------------------------------------------------------------------------------------------------
                                OUTER      INNER                    STEP   MAXIMUM CHANGE MODEL-(CELLID) OR
 OUTER ITERATION STEP       ITERATION  ITERATION  MAXIMUM CHANGE SUCCESS             MODEL-PACKAGE-(NUMBER)
 ----------------------------------------------------------------------------------------------------------
 Model                              1         34      0.30187622                             1_GWF-(1,2797)
 Model                              2         16 -2.20365908E-03                              1_GWF-(1,635)
 Model                              3          8  2.29655240E-05                             1_GWF-(1,4187)
 Model                              4          1 -5.94474074E-07       *                     1_GWF-(3,4980)
 ----------------------------------------------------------------------------------------------------------


 4 CALLS TO NUMERICAL SOLUTION IN TIME STEP 48 STRESS PERIOD 2
 59 TOTAL ITERATIONS

 OUTER ITERATION SUMMARY
 ----------------------------------------------------------------------------------------------------------
                                OUTER      INNER                    STEP   MAXIMUM CHANGE MODEL-(CELLID) OR
 OUTER ITERATION STEP       ITERATION  ITERATION  MAXIMUM CHANGE SUCCESS             MODEL-PACKAGE-(NUMBER)
 ----------------------------------------------------------------------------------------------------------
 Model                              1         32      0.13057145                             1_GWF-(1,3239)
 Model                              2         16 -7.00190104E-03                             1_GWF-(1,3259)
 Model                              3          6  1.98904064E-05                             1_GWF-(1,3244)
 Model                              4          1 -4.75370811E-07       *                     1_GWF-(3,4981)
 ----------------------------------------------------------------------------------------------------------


 4 CALLS TO NUMERICAL SOLUTION IN TIME STEP 49 STRESS PERIOD 2
 55 TOTAL ITERATIONS

 OUTER ITERATION SUMMARY
 ----------------------------------------------------------------------------------------------------------
                                OUTER      INNER                    STEP   MAXIMUM CHANGE MODEL-(CELLID) OR
 OUTER ITERATION STEP       ITERATION  ITERATION  MAXIMUM CHANGE SUCCESS             MODEL-PACKAGE-(NUMBER)
 ----------------------------------------------------------------------------------------------------------
 Model                              1         31 -8.38149861E-02                              1_GWF-(1,338)
 Model                              2         12  5.44434983E-04                             1_GWF-(1,4175)
 Model                              3          4  4.60260439E-06       *                     1_GWF-(1,4260)
 ----------------------------------------------------------------------------------------------------------


 3 CALLS TO NUMERICAL SOLUTION IN TIME STEP 50 STRESS PERIOD 2
 47 TOTAL ITERATIONS

 OUTER ITERATION SUMMARY
 ----------------------------------------------------------------------------------------------------------
                                OUTER      INNER                    STEP   MAXIMUM CHANGE MODEL-(CELLID) OR
 OUTER ITERATION STEP       ITERATION  ITERATION  MAXIMUM CHANGE SUCCESS             MODEL-PACKAGE-(NUMBER)
 ----------------------------------------------------------------------------------------------------------
 Model                              1         31  8.89655556E-02                             1_GWF-(1,3240)
 Model                              2         15 -1.07156879E-03                             1_GWF-(1,4351)
 Model                              3          6 -1.63548994E-05                             1_GWF-(1,4354)
 Model                              4          1 -8.92517164E-07       *                       1_GWF-(3,61)
 ----------------------------------------------------------------------------------------------------------


 4 CALLS TO NUMERICAL SOLUTION IN TIME STEP 51 STRESS PERIOD 2
 53 TOTAL ITERATIONS

 OUTER ITERATION SUMMARY
 ----------------------------------------------------------------------------------------------------------
                                OUTER      INNER                    STEP   MAXIMUM CHANGE MODEL-(CELLID) OR
 OUTER ITERATION STEP       ITERATION  ITERATION  MAXIMUM CHANGE SUCCESS             MODEL-PACKAGE-(NUMBER)
 ----------------------------------------------------------------------------------------------------------
 Model                              1         32  5.18695947E-02                             1_GWF-(1,2345)
 Model                              2         13  3.95558238E-04                             1_GWF-(1,3249)
 Model                              3          3 -6.89412684E-06       *                     1_GWF-(1,4667)
 ----------------------------------------------------------------------------------------------------------


 3 CALLS TO NUMERICAL SOLUTION IN TIME STEP 52 STRESS PERIOD 2
 48 TOTAL ITERATIONS

 OUTER ITERATION SUMMARY
 ----------------------------------------------------------------------------------------------------------
                                OUTER      INNER                    STEP   MAXIMUM CHANGE MODEL-(CELLID) OR
 OUTER ITERATION STEP       ITERATION  ITERATION  MAXIMUM CHANGE SUCCESS             MODEL-PACKAGE-(NUMBER)
 ----------------------------------------------------------------------------------------------------------
 Model                              1         33     -0.30844965                              1_GWF-(3,710)
 Model                              2         11  4.90052111E-04                              1_GWF-(1,635)
 Model                              3          2 -5.37000571E-06       *                     1_GWF-(1,4187)
 ----------------------------------------------------------------------------------------------------------


 3 CALLS TO NUMERICAL SOLUTION IN TIME STEP 53 STRESS PERIOD 2
 46 TOTAL ITERATIONS

 OUTER ITERATION SUMMARY
 ----------------------------------------------------------------------------------------------------------
                                OUTER      INNER                    STEP   MAXIMUM CHANGE MODEL-(CELLID) OR
 OUTER ITERATION STEP       ITERATION  ITERATION  MAXIMUM CHANGE SUCCESS             MODEL-PACKAGE-(NUMBER)
 ----------------------------------------------------------------------------------------------------------
 Model                              1         38      -1.8789604                              1_GWF-(3,710)
 Model                              2         17  2.02498991E-03                              1_GWF-(1,708)
 Model                              3          6  2.17051297E-05                              1_GWF-(1,710)
 Model                              4          3 -8.71433059E-07       *                      1_GWF-(2,942)
 ----------------------------------------------------------------------------------------------------------


 4 CALLS TO NUMERICAL SOLUTION IN TIME STEP 54 STRESS PERIOD 2
 64 TOTAL ITERATIONS

 OUTER ITERATION SUMMARY
 ----------------------------------------------------------------------------------------------------------
                                OUTER      INNER                    STEP   MAXIMUM CHANGE MODEL-(CELLID) OR
 OUTER ITERATION STEP       ITERATION  ITERATION  MAXIMUM CHANGE SUCCESS             MODEL-PACKAGE-(NUMBER)
 ----------------------------------------------------------------------------------------------------------
 Model                              1         35      -1.9546218                             1_GWF-(3,4261)
 Model                              2         16  9.56971862E-04                              1_GWF-(1,786)
 Model                              3          6  1.55236550E-05                             1_GWF-(1,4667)
 Model                              4          1  6.75580722E-07       *                       1_GWF-(3,70)
 ----------------------------------------------------------------------------------------------------------


 4 CALLS TO NUMERICAL SOLUTION IN TIME STEP 55 STRESS PERIOD 2
 58 TOTAL ITERATIONS

 OUTER ITERATION SUMMARY
 ----------------------------------------------------------------------------------------------------------
                                OUTER      INNER                    STEP   MAXIMUM CHANGE MODEL-(CELLID) OR
 OUTER ITERATION STEP       ITERATION  ITERATION  MAXIMUM CHANGE SUCCESS             MODEL-PACKAGE-(NUMBER)
 ----------------------------------------------------------------------------------------------------------
 Model                              1         31      0.43665402                             1_GWF-(3,4261)
 Model                              2         17 -3.85781259E-03                             1_GWF-(1,3259)
 Model                              3          5  1.80789221E-05                             1_GWF-(1,3244)
 Model                              4          1  5.15077716E-07       *                     1_GWF-(2,3259)
 ----------------------------------------------------------------------------------------------------------


 4 CALLS TO NUMERICAL SOLUTION IN TIME STEP 56 STRESS PERIOD 2
 54 TOTAL ITERATIONS

 OUTER ITERATION SUMMARY
 ----------------------------------------------------------------------------------------------------------
                                OUTER      INNER                    STEP   MAXIMUM CHANGE MODEL-(CELLID) OR
 OUTER ITERATION STEP       ITERATION  ITERATION  MAXIMUM CHANGE SUCCESS             MODEL-PACKAGE-(NUMBER)
 ----------------------------------------------------------------------------------------------------------
 Model                              1         38     -0.61207110                             1_GWF-(1,1985)
 Model                              2         14 -6.22536807E-03                             1_GWF-(1,1282)
 Model                              3          5 -3.04570289E-05                             1_GWF-(1,1282)
 Model                              4          2 -1.16927183E-06       *                       1_GWF-(3,70)
 ----------------------------------------------------------------------------------------------------------


 4 CALLS TO NUMERICAL SOLUTION IN TIME STEP 57 STRESS PERIOD 2
 59 TOTAL ITERATIONS

 OUTER ITERATION SUMMARY
 ----------------------------------------------------------------------------------------------------------
                                OUTER      INNER                    STEP   MAXIMUM CHANGE MODEL-(CELLID) OR
 OUTER ITERATION STEP       ITERATION  ITERATION  MAXIMUM CHANGE SUCCESS             MODEL-PACKAGE-(NUMBER)
 ----------------------------------------------------------------------------------------------------------
 Model                              1         37       1.2670444                             1_GWF-(3,4261)
 Model                              2         14 -7.62650024E-04                             1_GWF-(1,3247)
 Model                              3          5  1.12961887E-05                             1_GWF-(1,4666)
 Model                              4          1  7.56277714E-07       *                       1_GWF-(3,61)
 ----------------------------------------------------------------------------------------------------------


 4 CALLS TO NUMERICAL SOLUTION IN TIME STEP 58 STRESS PERIOD 2
 57 TOTAL ITERATIONS

 OUTER ITERATION SUMMARY
 ----------------------------------------------------------------------------------------------------------
                                OUTER      INNER                    STEP   MAXIMUM CHANGE MODEL-(CELLID) OR
 OUTER ITERATION STEP       ITERATION  ITERATION  MAXIMUM CHANGE SUCCESS             MODEL-PACKAGE-(NUMBER)
 ----------------------------------------------------------------------------------------------------------
 Model                              1         34      0.57248978                             1_GWF-(3,1985)
 Model                              2         12  2.56147975E-03                             1_GWF-(1,2798)
 Model                              3          5 -1.81913518E-05                             1_GWF-(1,2798)
 Model                              4          1 -7.43045518E-07       *                       1_GWF-(3,70)
 ----------------------------------------------------------------------------------------------------------


 4 CALLS TO NUMERICAL SOLUTION IN TIME STEP 59 STRESS PERIOD 2
 52 TOTAL ITERATIONS

 OUTER ITERATION SUMMARY
 ----------------------------------------------------------------------------------------------------------
                                OUTER      INNER                    STEP   MAXIMUM CHANGE MODEL-(CELLID) OR
 OUTER ITERATION STEP       ITERATION  ITERATION  MAXIMUM CHANGE SUCCESS             MODEL-PACKAGE-(NUMBER)
 ----------------------------------------------------------------------------------------------------------
 Model                              1         31      0.17180380                             1_GWF-(1,2343)
 Model                              2         14  9.70636527E-04                             1_GWF-(1,2798)
 Model                              3          6 -1.04554687E-05                             1_GWF-(1,2798)
 Model                              4          1 -4.76633048E-07       *                     1_GWF-(3,4923)
 ----------------------------------------------------------------------------------------------------------


 4 CALLS TO NUMERICAL SOLUTION IN TIME STEP 60 STRESS PERIOD 2
 52 TOTAL ITERATIONS

 OUTER ITERATION SUMMARY
 ----------------------------------------------------------------------------------------------------------
                                OUTER      INNER                    STEP   MAXIMUM CHANGE MODEL-(CELLID) OR
 OUTER ITERATION STEP       ITERATION  ITERATION  MAXIMUM CHANGE SUCCESS             MODEL-PACKAGE-(NUMBER)
 ----------------------------------------------------------------------------------------------------------
 Model                              1         37     -0.51607104                              1_GWF-(3,710)
 Model                              2         16 -4.14153587E-04                             1_GWF-(1,2797)
 Model                              3          6  7.05483268E-06       *                     1_GWF-(1,4188)
 ----------------------------------------------------------------------------------------------------------


 3 CALLS TO NUMERICAL SOLUTION IN TIME STEP 61 STRESS PERIOD 2
 59 TOTAL ITERATIONS

 OUTER ITERATION SUMMARY
 ----------------------------------------------------------------------------------------------------------
                                OUTER      INNER                    STEP   MAXIMUM CHANGE MODEL-(CELLID) OR
 OUTER ITERATION STEP       ITERATION  ITERATION  MAXIMUM CHANGE SUCCESS             MODEL-PACKAGE-(NUMBER)
 ----------------------------------------------------------------------------------------------------------
 Model                              1         32     -0.47112041                              1_GWF-(3,710)
 Model                              2         13  3.86911527E-04                             1_GWF-(1,3939)
 Model                              3          3  6.37617940E-06       *                     1_GWF-(1,4270)
 ----------------------------------------------------------------------------------------------------------


 3 CALLS TO NUMERICAL SOLUTION IN TIME STEP 62 STRESS PERIOD 2
 48 TOTAL ITERATIONS

 OUTER ITERATION SUMMARY
 ----------------------------------------------------------------------------------------------------------
                                OUTER      INNER                    STEP   MAXIMUM CHANGE MODEL-(CELLID) OR
 OUTER ITERATION STEP       ITERATION  ITERATION  MAXIMUM CHANGE SUCCESS             MODEL-PACKAGE-(NUMBER)
 ----------------------------------------------------------------------------------------------------------
 Model                              1         38      0.71461252                              1_GWF-(3,710)
 Model                              2         12 -5.67649430E-04                              1_GWF-(1,709)
 Model                              3          5  5.92677827E-06       *                     1_GWF-(1,4270)
 ----------------------------------------------------------------------------------------------------------


 3 CALLS TO NUMERICAL SOLUTION IN TIME STEP 63 STRESS PERIOD 2
 55 TOTAL ITERATIONS

 OUTER ITERATION SUMMARY
 ----------------------------------------------------------------------------------------------------------
                                OUTER      INNER                    STEP   MAXIMUM CHANGE MODEL-(CELLID) OR
 OUTER ITERATION STEP       ITERATION  ITERATION  MAXIMUM CHANGE SUCCESS             MODEL-PACKAGE-(NUMBER)
 ----------------------------------------------------------------------------------------------------------
 Model                              1         35     -0.83332416                              1_GWF-(3,710)
 Model                              2         17  3.55221183E-04                             1_GWF-(1,3939)
 Model                              3          3  5.16799737E-06       *                     1_GWF-(1,4270)
 ----------------------------------------------------------------------------------------------------------


 3 CALLS TO NUMERICAL SOLUTION IN TIME STEP 64 STRESS PERIOD 2
 55 TOTAL ITERATIONS

 OUTER ITERATION SUMMARY
 ----------------------------------------------------------------------------------------------------------
                                OUTER      INNER                    STEP   MAXIMUM CHANGE MODEL-(CELLID) OR
 OUTER ITERATION STEP       ITERATION  ITERATION  MAXIMUM CHANGE SUCCESS             MODEL-PACKAGE-(NUMBER)
 ----------------------------------------------------------------------------------------------------------
 Model                              1         34      -1.2252800                             1_GWF-(3,4261)
 Model                              2         17  5.09805616E-04                             1_GWF-(1,4340)
 Model                              3          5  5.49851313E-06       *                      1_GWF-(1,709)
 ----------------------------------------------------------------------------------------------------------


 3 CALLS TO NUMERICAL SOLUTION IN TIME STEP 65 STRESS PERIOD 2
 56 TOTAL ITERATIONS

 OUTER ITERATION SUMMARY
 ----------------------------------------------------------------------------------------------------------
                                OUTER      INNER                    STEP   MAXIMUM CHANGE MODEL-(CELLID) OR
 OUTER ITERATION STEP       ITERATION  ITERATION  MAXIMUM CHANGE SUCCESS             MODEL-PACKAGE-(NUMBER)
 ----------------------------------------------------------------------------------------------------------
 Model                              1         35     -0.88205444                             1_GWF-(3,4261)
 Model                              2         17  1.34046149E-03                             1_GWF-(1,2797)
 Model                              3          5  1.13321670E-05                             1_GWF-(1,2798)
 Model                              4          1 -3.58843593E-07       *                     1_GWF-(3,4981)
 ----------------------------------------------------------------------------------------------------------


 4 CALLS TO NUMERICAL SOLUTION IN TIME STEP 66 STRESS PERIOD 2
 58 TOTAL ITERATIONS

 OUTER ITERATION SUMMARY
 ----------------------------------------------------------------------------------------------------------
                                OUTER      INNER                    STEP   MAXIMUM CHANGE MODEL-(CELLID) OR
 OUTER ITERATION STEP       ITERATION  ITERATION  MAXIMUM CHANGE SUCCESS             MODEL-PACKAGE-(NUMBER)
 ----------------------------------------------------------------------------------------------------------
 Model                              1         31     -0.54813542                             1_GWF-(1,1985)
 Model                              2         15  1.93484638E-03                             1_GWF-(1,2797)
 Model                              3          6  1.29002758E-05                             1_GWF-(1,2798)
 Model                              4          1 -3.24482201E-07       *                     1_GWF-(3,4469)
 ----------------------------------------------------------------------------------------------------------


 4 CALLS TO NUMERICAL SOLUTION IN TIME STEP 67 STRESS PERIOD 2
 53 TOTAL ITERATIONS

 OUTER ITERATION SUMMARY
 ----------------------------------------------------------------------------------------------------------
                                OUTER      INNER                    STEP   MAXIMUM CHANGE MODEL-(CELLID) OR
 OUTER ITERATION STEP       ITERATION  ITERATION  MAXIMUM CHANGE SUCCESS             MODEL-PACKAGE-(NUMBER)
 ----------------------------------------------------------------------------------------------------------
 Model                              1         32     -0.56533704                             1_GWF-(1,2343)
 Model                              2         12 -3.01293947E-03                             1_GWF-(1,1278)
 Model                              3          4 -1.52957506E-05                             1_GWF-(1,1278)
 Model                              4          3 -4.67649038E-06       *                     1_GWF-(1,1280)
 ----------------------------------------------------------------------------------------------------------


 4 CALLS TO NUMERICAL SOLUTION IN TIME STEP 68 STRESS PERIOD 2
 51 TOTAL ITERATIONS

 OUTER ITERATION SUMMARY
 ----------------------------------------------------------------------------------------------------------
[...]
 Model                              3          4 -1.30216805E-05                             1_GWF-(1,4187)
 Model                              4          3  1.88705067E-06       *                     1_GWF-(3,4850)
 ----------------------------------------------------------------------------------------------------------


 4 CALLS TO NUMERICAL SOLUTION IN TIME STEP 102 STRESS PERIOD 2
 54 TOTAL ITERATIONS

 OUTER ITERATION SUMMARY
 ----------------------------------------------------------------------------------------------------------
                                OUTER      INNER                    STEP   MAXIMUM CHANGE MODEL-(CELLID) OR
 OUTER ITERATION STEP       ITERATION  ITERATION  MAXIMUM CHANGE SUCCESS             MODEL-PACKAGE-(NUMBER)
 ----------------------------------------------------------------------------------------------------------
 Model                              1         35      -1.0877818                              1_GWF-(3,710)
 Model                              2         17  1.59425639E-03                              1_GWF-(1,787)
 Model                              3          7  1.77335627E-05                             1_GWF-(1,4354)
 Model                              4          1  8.21433119E-07       *                     1_GWF-(3,4831)
 ----------------------------------------------------------------------------------------------------------


 4 CALLS TO NUMERICAL SOLUTION IN TIME STEP 103 STRESS PERIOD 2
 60 TOTAL ITERATIONS

 OUTER ITERATION SUMMARY
 ----------------------------------------------------------------------------------------------------------
                                OUTER      INNER                    STEP   MAXIMUM CHANGE MODEL-(CELLID) OR
 OUTER ITERATION STEP       ITERATION  ITERATION  MAXIMUM CHANGE SUCCESS             MODEL-PACKAGE-(NUMBER)
 ----------------------------------------------------------------------------------------------------------
 Model                              1         37      -2.1792732                             1_GWF-(3,4261)
 Model                              2         13  1.24138053E-03                              1_GWF-(1,786)
 Model                              3         10  1.81095089E-05                             1_GWF-(1,4436)
 Model                              4          2  1.80721872E-06       *                     1_GWF-(3,4981)
 ----------------------------------------------------------------------------------------------------------


 4 CALLS TO NUMERICAL SOLUTION IN TIME STEP 104 STRESS PERIOD 2
 62 TOTAL ITERATIONS

 OUTER ITERATION SUMMARY
 ----------------------------------------------------------------------------------------------------------
                                OUTER      INNER                    STEP   MAXIMUM CHANGE MODEL-(CELLID) OR
 OUTER ITERATION STEP       ITERATION  ITERATION  MAXIMUM CHANGE SUCCESS             MODEL-PACKAGE-(NUMBER)
 ----------------------------------------------------------------------------------------------------------
 Model                              1         36      0.85881648                             1_GWF-(3,4261)
 Model                              2         13 -1.39679267E-02                             1_GWF-(1,3259)
 Model                              3          9  5.73138889E-05                             1_GWF-(1,3244)
 Model                              4          1  8.73520108E-07       *                     1_GWF-(3,4977)
 ----------------------------------------------------------------------------------------------------------


 4 CALLS TO NUMERICAL SOLUTION IN TIME STEP 105 STRESS PERIOD 2
 59 TOTAL ITERATIONS

 OUTER ITERATION SUMMARY
 ----------------------------------------------------------------------------------------------------------
                                OUTER      INNER                    STEP   MAXIMUM CHANGE MODEL-(CELLID) OR
 OUTER ITERATION STEP       ITERATION  ITERATION  MAXIMUM CHANGE SUCCESS             MODEL-PACKAGE-(NUMBER)
 ----------------------------------------------------------------------------------------------------------
 Model                              1         34       1.6334778                             1_GWF-(3,4261)
 Model                              2         16 -1.14450069E-03                              1_GWF-(1,709)
 Model                              3          7  1.00441948E-05                              1_GWF-(1,864)
 Model                              4          1  3.99201738E-07       *                     1_GWF-(3,4453)
 ----------------------------------------------------------------------------------------------------------


 4 CALLS TO NUMERICAL SOLUTION IN TIME STEP 106 STRESS PERIOD 2
 58 TOTAL ITERATIONS

 OUTER ITERATION SUMMARY
 ----------------------------------------------------------------------------------------------------------
                                OUTER      INNER                    STEP   MAXIMUM CHANGE MODEL-(CELLID) OR
 OUTER ITERATION STEP       ITERATION  ITERATION  MAXIMUM CHANGE SUCCESS             MODEL-PACKAGE-(NUMBER)
 ----------------------------------------------------------------------------------------------------------
 Model                              1         34     -0.32792682                              1_GWF-(3,710)
 Model                              2         14  4.49013934E-04                             1_GWF-(1,2798)
 Model                              3          5  7.88171459E-06       *                     1_GWF-(1,4666)
 ----------------------------------------------------------------------------------------------------------


 3 CALLS TO NUMERICAL SOLUTION IN TIME STEP 107 STRESS PERIOD 2
 53 TOTAL ITERATIONS

 OUTER ITERATION SUMMARY
 ----------------------------------------------------------------------------------------------------------
                                OUTER      INNER                    STEP   MAXIMUM CHANGE MODEL-(CELLID) OR
 OUTER ITERATION STEP       ITERATION  ITERATION  MAXIMUM CHANGE SUCCESS             MODEL-PACKAGE-(NUMBER)
 ----------------------------------------------------------------------------------------------------------
 Model                              1         35      0.33349089                              1_GWF-(3,710)
 Model                              2         13 -4.22765981E-04                              1_GWF-(1,709)
 Model                              3          4  6.70474111E-06       *                     1_GWF-(1,4188)
 ----------------------------------------------------------------------------------------------------------


 3 CALLS TO NUMERICAL SOLUTION IN TIME STEP 108 STRESS PERIOD 2
 52 TOTAL ITERATIONS

 OUTER ITERATION SUMMARY
 ----------------------------------------------------------------------------------------------------------
                                OUTER      INNER                    STEP   MAXIMUM CHANGE MODEL-(CELLID) OR
 OUTER ITERATION STEP       ITERATION  ITERATION  MAXIMUM CHANGE SUCCESS             MODEL-PACKAGE-(NUMBER)
 ----------------------------------------------------------------------------------------------------------
 Model                              1         28 -3.52290723E-02                             1_GWF-(1,4958)
 Model                              2         13 -3.16050185E-04                              1_GWF-(1,708)
 Model                              3          5  6.24173198E-06       *                     1_GWF-(1,4106)
 ----------------------------------------------------------------------------------------------------------


 3 CALLS TO NUMERICAL SOLUTION IN TIME STEP 109 STRESS PERIOD 2
 46 TOTAL ITERATIONS

 OUTER ITERATION SUMMARY
 ----------------------------------------------------------------------------------------------------------
                                OUTER      INNER                    STEP   MAXIMUM CHANGE MODEL-(CELLID) OR
 OUTER ITERATION STEP       ITERATION  ITERATION  MAXIMUM CHANGE SUCCESS             MODEL-PACKAGE-(NUMBER)
 ----------------------------------------------------------------------------------------------------------
 Model                              1         30  7.30451475E-02                              1_GWF-(1,711)
 Model                              2         12 -6.77640229E-04                             1_GWF-(1,4352)
 Model                              3          5  8.92723656E-06       *                     1_GWF-(1,4268)
 ----------------------------------------------------------------------------------------------------------


 3 CALLS TO NUMERICAL SOLUTION IN TIME STEP 110 STRESS PERIOD 2
 47 TOTAL ITERATIONS

 OUTER ITERATION SUMMARY
 ----------------------------------------------------------------------------------------------------------
                                OUTER      INNER                    STEP   MAXIMUM CHANGE MODEL-(CELLID) OR
 OUTER ITERATION STEP       ITERATION  ITERATION  MAXIMUM CHANGE SUCCESS             MODEL-PACKAGE-(NUMBER)
 ----------------------------------------------------------------------------------------------------------
 Model                              1         30     -0.79177217                              1_GWF-(3,710)
 Model                              2         15  5.94619110E-04                              1_GWF-(1,636)
 Model                              3          4  5.10830009E-06       *                     1_GWF-(1,1027)
 ----------------------------------------------------------------------------------------------------------


 3 CALLS TO NUMERICAL SOLUTION IN TIME STEP 111 STRESS PERIOD 2
 49 TOTAL ITERATIONS

 OUTER ITERATION SUMMARY
 ----------------------------------------------------------------------------------------------------------
                                OUTER      INNER                    STEP   MAXIMUM CHANGE MODEL-(CELLID) OR
 OUTER ITERATION STEP       ITERATION  ITERATION  MAXIMUM CHANGE SUCCESS             MODEL-PACKAGE-(NUMBER)
 ----------------------------------------------------------------------------------------------------------
 Model                              1         34      0.40704404                              1_GWF-(3,710)
 Model                              2         13  2.70872046E-04                             1_GWF-(1,4175)
 Model                              3          2  3.25984772E-06       *                     1_GWF-(1,4436)
 ----------------------------------------------------------------------------------------------------------


 3 CALLS TO NUMERICAL SOLUTION IN TIME STEP 112 STRESS PERIOD 2
 49 TOTAL ITERATIONS

 OUTER ITERATION SUMMARY
 ----------------------------------------------------------------------------------------------------------
                                OUTER      INNER                    STEP   MAXIMUM CHANGE MODEL-(CELLID) OR
 OUTER ITERATION STEP       ITERATION  ITERATION  MAXIMUM CHANGE SUCCESS             MODEL-PACKAGE-(NUMBER)
 ----------------------------------------------------------------------------------------------------------
 Model                              1         41      -1.9605187                              1_GWF-(3,710)
 Model                              2         20  1.54458574E-03                              1_GWF-(1,708)
 Model                              3          5  1.72452977E-05                              1_GWF-(1,709)
 Model                              4          1  9.74998400E-07       *                     1_GWF-(3,4374)
 ----------------------------------------------------------------------------------------------------------


 4 CALLS TO NUMERICAL SOLUTION IN TIME STEP 113 STRESS PERIOD 2
 67 TOTAL ITERATIONS

 OUTER ITERATION SUMMARY
 ----------------------------------------------------------------------------------------------------------
                                OUTER      INNER                    STEP   MAXIMUM CHANGE MODEL-(CELLID) OR
 OUTER ITERATION STEP       ITERATION  ITERATION  MAXIMUM CHANGE SUCCESS             MODEL-PACKAGE-(NUMBER)
 ----------------------------------------------------------------------------------------------------------
 Model                              1         30      0.91418497                              1_GWF-(3,710)
 Model                              2         12  5.56974893E-04                             1_GWF-(1,3939)
 Model                              3          3  7.07847933E-06       *                     1_GWF-(1,4435)
 ----------------------------------------------------------------------------------------------------------


 3 CALLS TO NUMERICAL SOLUTION IN TIME STEP 114 STRESS PERIOD 2
 45 TOTAL ITERATIONS

 OUTER ITERATION SUMMARY
 ----------------------------------------------------------------------------------------------------------
                                OUTER      INNER                    STEP   MAXIMUM CHANGE MODEL-(CELLID) OR
 OUTER ITERATION STEP       ITERATION  ITERATION  MAXIMUM CHANGE SUCCESS             MODEL-PACKAGE-(NUMBER)
 ----------------------------------------------------------------------------------------------------------
 Model                              1         40      -1.2831156                             1_GWF-(3,4261)
 Model                              2         14  1.93120744E-03                             1_GWF-(1,2797)
 Model                              3          5  1.47517340E-05                             1_GWF-(1,2798)
 Model                              4          1 -4.37829712E-07       *                     1_GWF-(3,4980)
 ----------------------------------------------------------------------------------------------------------


 4 CALLS TO NUMERICAL SOLUTION IN TIME STEP 115 STRESS PERIOD 2
 60 TOTAL ITERATIONS

 OUTER ITERATION SUMMARY
 ----------------------------------------------------------------------------------------------------------
                                OUTER      INNER                    STEP   MAXIMUM CHANGE MODEL-(CELLID) OR
 OUTER ITERATION STEP       ITERATION  ITERATION  MAXIMUM CHANGE SUCCESS             MODEL-PACKAGE-(NUMBER)
 ----------------------------------------------------------------------------------------------------------
 Model                              1         39      -1.0596281                             1_GWF-(1,1985)
 Model                              2         16  2.05642586E-03                             1_GWF-(1,3239)
 Model                              3          9  1.31253388E-05                              1_GWF-(1,709)
 Model                              4          1 -3.11736514E-07       *                     1_GWF-(3,4549)
 ----------------------------------------------------------------------------------------------------------


 4 CALLS TO NUMERICAL SOLUTION IN TIME STEP 116 STRESS PERIOD 2
 65 TOTAL ITERATIONS

 OUTER ITERATION SUMMARY
 ----------------------------------------------------------------------------------------------------------
                                OUTER      INNER                    STEP   MAXIMUM CHANGE MODEL-(CELLID) OR
 OUTER ITERATION STEP       ITERATION  ITERATION  MAXIMUM CHANGE SUCCESS             MODEL-PACKAGE-(NUMBER)
 ----------------------------------------------------------------------------------------------------------
 Model                              1         39       3.1700479                             1_GWF-(3,4261)
 Model                              2         12  2.96238584E-03                             1_GWF-(1,1986)
 Model                              3          5 -1.22517029E-05                              1_GWF-(1,710)
 Model                              4          2  1.23356895E-06       *                       1_GWF-(3,63)
 ----------------------------------------------------------------------------------------------------------


 4 CALLS TO NUMERICAL SOLUTION IN TIME STEP 117 STRESS PERIOD 2
 58 TOTAL ITERATIONS

 OUTER ITERATION SUMMARY
 ----------------------------------------------------------------------------------------------------------
                                OUTER      INNER                    STEP   MAXIMUM CHANGE MODEL-(CELLID) OR
 OUTER ITERATION STEP       ITERATION  ITERATION  MAXIMUM CHANGE SUCCESS             MODEL-PACKAGE-(NUMBER)
 ----------------------------------------------------------------------------------------------------------
 Model                              1         30      0.34767672                             1_GWF-(3,1985)
 Model                              2         13 -8.43582320E-04                             1_GWF-(1,3247)
 Model                              3          4  8.43409393E-06       *                     1_GWF-(1,3245)
 ----------------------------------------------------------------------------------------------------------


 3 CALLS TO NUMERICAL SOLUTION IN TIME STEP 118 STRESS PERIOD 2
 47 TOTAL ITERATIONS

 OUTER ITERATION SUMMARY
 ----------------------------------------------------------------------------------------------------------
                                OUTER      INNER                    STEP   MAXIMUM CHANGE MODEL-(CELLID) OR
 OUTER ITERATION STEP       ITERATION  ITERATION  MAXIMUM CHANGE SUCCESS             MODEL-PACKAGE-(NUMBER)
 ----------------------------------------------------------------------------------------------------------
 Model                              1         28      0.75338380                             1_GWF-(1,1985)
 Model                              2         14  2.61757863E-03                             1_GWF-(1,2798)
 Model                              3          5 -1.15513142E-05                             1_GWF-(1,2798)
 Model                              4          1 -3.93871645E-07       *                      1_GWF-(3,136)
 ----------------------------------------------------------------------------------------------------------


 4 CALLS TO NUMERICAL SOLUTION IN TIME STEP 119 STRESS PERIOD 2
 48 TOTAL ITERATIONS

 OUTER ITERATION SUMMARY
 ----------------------------------------------------------------------------------------------------------
                                OUTER      INNER                    STEP   MAXIMUM CHANGE MODEL-(CELLID) OR
 OUTER ITERATION STEP       ITERATION  ITERATION  MAXIMUM CHANGE SUCCESS             MODEL-PACKAGE-(NUMBER)
 ----------------------------------------------------------------------------------------------------------
 Model                              1         35      0.70100185                             1_GWF-(1,2343)
 Model                              2         13  3.69035645E-03                             1_GWF-(1,2798)
 Model                              3          3 -3.28898842E-05                             1_GWF-(1,2798)
 Model                              4          3  3.40241365E-06       *                     1_GWF-(2,3240)
 ----------------------------------------------------------------------------------------------------------


 4 CALLS TO NUMERICAL SOLUTION IN TIME STEP 120 STRESS PERIOD 2
 54 TOTAL ITERATIONS

 MEMORY MANAGER TOTAL STORAGE BY DATA TYPE, IN MEGABYTES
 -------------------------------
                    ALLOCATED   
 DATA TYPE           MEMORY     
 -------------------------------
 Character        0.55360100    
 Logical          4.40000000E-05
 Integer          3.4359720     
 Real             7.1993920     
 -------------------------------
 Total            11.189009     
 -------------------------------


 
 Run end date and time (yyyy/mm/dd hh:mm:ss): 2021/02/22 16:21:33
 Elapsed run time:  9.807 Seconds

WARNING REPORT:

  1. NONLINEAR BLOCK VARIABLE 'OUTER_HCLOSE' IN FILE 'model.ims' WAS
     DEPRECATED IN VERSION 6.1.1. SETTING OUTER_DVCLOSE TO OUTER_HCLOSE VALUE.
  2. LINEAR BLOCK VARIABLE 'INNER_HCLOSE' IN FILE 'model.ims' WAS DEPRECATED
     IN VERSION 6.1.1. SETTING INNER_DVCLOSE TO INNER_HCLOSE VALUE.
 Normal termination of simulation.
