                                   MODFLOW 6
                U.S. GEOLOGICAL SURVEY MODULAR HYDROLOGIC MODEL
                          GROUNDWATER FLOW MODEL (GWF)
                            VERSION 6.2.0 10/22/2020

   MODFLOW 6 compiled Oct 22 2020 09:26:42 with IFORT compiler (ver. 19.10.2)

This software has been approved for release by the U.S. Geological 
Survey (USGS). Although the software has been subjected to rigorous 
review, the USGS reserves the right to update the software as needed 
pursuant to further analysis and review. No warranty, expressed or 
implied, is made by the USGS or the U.S. Government as to the 
functionality of the software and related material nor shall the 
fact of release constitute any such warranty. Furthermore, the 
software is released on condition that neither the USGS nor the U.S. 
Government shall be held liable for any damages resulting from its 
authorized or unauthorized use. Also refer to the USGS Water 
Resources Software User Rights Notice for complete use, copyright, 
and distribution information.


System command used to initiate simulation:
mf6  mfsim.nam

MODFLOW was compiled using uniform precision.

Real Variables
  KIND: 8
  TINY (smallest non-zero value):    2.225074-308
  HUGE (largest value):    1.797693+308
  PRECISION: 15
  BIT SIZE: 64

Integer Variables
  KIND: 4
  HUGE (largest value): 2147483647
  BIT SIZE: 32

Long Integer Variables
  KIND: 8
  HUGE (largest value): 9223372036854775807
  BIT SIZE: 64

Logical Variables
  KIND: 4
  BIT SIZE: 32
 

 OPENED model.disv
 FILE TYPE:DISV6                  UNIT 1005   STATUS:OLD                 
 FORMAT:FORMATTED              ACCESS:SEQUENTIAL          
 ACTION:READ                


 OPENED model.npf
 FILE TYPE:NPF6                   UNIT 1006   STATUS:OLD                 
 FORMAT:FORMATTED              ACCESS:SEQUENTIAL          
 ACTION:READ                


 OPENED model.ic
 FILE TYPE:IC6                    UNIT 1007   STATUS:OLD                 
 FORMAT:FORMATTED              ACCESS:SEQUENTIAL          
 ACTION:READ                


 OPENED model.rch
 FILE TYPE:RCH6                   UNIT 1008   STATUS:OLD                 
 FORMAT:FORMATTED              ACCESS:SEQUENTIAL          
 ACTION:READ                


 OPENED model.evt
 FILE TYPE:EVT6                   UNIT 1009   STATUS:OLD                 
 FORMAT:FORMATTED              ACCESS:SEQUENTIAL          
 ACTION:READ                


 OPENED model.chd
 FILE TYPE:CHD6                   UNIT 1010   STATUS:OLD                 
 FORMAT:FORMATTED              ACCESS:SEQUENTIAL          
 ACTION:READ                


 OPENED model.ghb
 FILE TYPE:GHB6                   UNIT 1011   STATUS:OLD                 
 FORMAT:FORMATTED              ACCESS:SEQUENTIAL          
 ACTION:READ                


 OPENED model.riv
 FILE TYPE:RIV6                   UNIT 1012   STATUS:OLD                 
 FORMAT:FORMATTED              ACCESS:SEQUENTIAL          
 ACTION:READ                


 OPENED model2.drn
 FILE TYPE:DRN6                   UNIT 1013   STATUS:OLD                 
 FORMAT:FORMATTED              ACCESS:SEQUENTIAL          
 ACTION:READ                


 OPENED model.wel
 FILE TYPE:WEL6                   UNIT 1014   STATUS:OLD                 
 FORMAT:FORMATTED              ACCESS:SEQUENTIAL          
 ACTION:READ                


 OPENED model.sto
 FILE TYPE:STO6                   UNIT 1015   STATUS:OLD                 
 FORMAT:FORMATTED              ACCESS:SEQUENTIAL          
 ACTION:READ                


 OPENED model.oc
 FILE TYPE:OC6                    UNIT 1016   STATUS:OLD                 
 FORMAT:FORMATTED              ACCESS:SEQUENTIAL          
 ACTION:READ                


 OPENED model.obs
 FILE TYPE:OBS6                   UNIT 1017   STATUS:OLD                 
 FORMAT:FORMATTED              ACCESS:SEQUENTIAL          
 ACTION:READ                


 DISV -- VERTEX GRID DISCRETIZATION PACKAGE, VERSION 1 : 12/23/2015 - INPUT READ FROM UNIT 1005


 # File generated by Flopy version 3.3.3 on 02/11/2021 at 12:42:15.

 PROCESSING DISCRETIZATION OPTIONS
   MODEL LENGTH UNIT IS UNDEFINED
 END OF DISCRETIZATION OPTIONS

 PROCESSING DISCRETIZATION DIMENSIONS
   NLAY = 3
   NCPL = 5011
   NVERT = 5889
 END OF DISCRETIZATION DIMENSIONS

 PROCESSING GRIDDATA

                  IDOMAIN FOR LAYER 1
      1 1 1 1 1 1 1 1 1 1 1 1 1 1 1 1 1 1 1 1 1 1 1 1 1 1 1 1 1 1 1 1 1 1 1 1 1 1 1 1 1 1 1 1 1 1 1 1 1 1 1 1 1 1 1 1 1 1 1 1
      1 0 1 0 1 1 1 1 0 1 0 1 0 0 0 0 0 0 0 0 0 0 1 1 1 1 1 1 1 1 1 1 1 1 1 1 1 1 1 1 1 1 1 1 1 1 1 1 1 1 1 1 1 1 1 1 1 1 1 1
      1 1 1 1 1 1 1 1 1 1 1 0 1 0 0 1 0 0 0 0 1 1 1 1 1 1 1 0 1 0 0 0 0 0 0 0 0 0 1 1 1 1 1 1 1 1 1 1 1 1 1 1 1 1 1 1 1 1 1 1
      1 1 1 1 1 1 1 1 1 1 1 1 1 1 1 1 1 1 1 1 1 1 1 1 1 1 1 1 1 1 0 0 0 1 1 1 1 0 0 0 0 0 1 0 1 0 0 1 0 1 0 0 0 0 0 0 0 1 1 1
      1 1 1 1 1 1 1 1 1 1 1 1 1 1 1 1 1 1 1 1 1 1 1 1 1 1 1 1 1 1 1 1 1 1 1 1 1 1 1 1 1 1 1 1 1 1 1 1 1 1 1 1 1 1 1 1 1 0 0 0
      0 0 0 0 0 0 0 0 0 0 1 1 1 1 1 1 1 1 1 1 1 1 1 1 1 1 1 1 1 1 1 1 1 1 1 1 1 1 1 1 1 1 1 1 1 1 1 1 1 1 1 1 1 1 1 1 1 1 1 1
      1 1 1 1 1 1 1 1 1 0 0 0 0 0 0 0 0 0 0 0 1 1 1 1 1 1 1 1 1 1 1 1 1 1 1 1 1 1 1 1 1 1 1 1 1 1 1 1 1 1 1 1 1 1 1 1 1 1 1 1
      1 1 1 1 1 1 1 1 1 1 1 0 1 0 0 1 0 1 0 0 0 1 0 1 1 0 1 1 1 1 0 0 0 1 1 1 1 1 1 1 1 1 1 1 1 1 1 1 1 1 1 1 1 1 1 1 1 1 1 1
      1 1 1 1 1 1 1 1 1 1 1 1 1 1 1 1 1 1 1 1 1 0 1 1 1 1 1 0 1 0 0 0 0 0 1 1 0 1 0 1 1 0 1 1 0 0 0 0 0 0 0 0 1 1 1 1 1 1 1 1
      1 1 1 1 1 1 1 1 1 1 1 1 1 1 1 1 1 1 1 1 1 1 1 1 1 1 1 1 1 1 1 1 1 1 1 1 1 1 1 1 1 1 1 0 0 0 0 1 0 0 1 1 1 1 1 0 1 0 0 1
      0 1 0 0 0 0 0 0 1 1 1 1 1 1 1 1 1 1 1 1 1 1 1 1 1 1 1 1 1 1 1 1 1 1 1 1 1 1 1 1 1 1 1 1 1 1 1 1 1 1 1 1 1 1 1 1 1 0 1 1
      1 1 0 1 1 1 1 1 1 1 1 0 1 1 1 1 0 0 0 0 0 1 1 1 1 1 1 1 1 1 1 1 1 1 1 1 1 1 1 1 1 1 1 1 1 1 1 1 1 1 1 1 1 1 1 1 1 1 1 1
      1 1 1 1 1 1 1 1 1 1 1 0 1 0 1 1 0 1 0 1 1 1 0 1 0 1 1 0 1 0 0 0 0 0 0 0 0 0 0 0 1 1 1 1 1 1 1 1 1 1 1 1 1 1 1 1 1 1 1 1
      1 1 1 1 1 1 1 1 1 1 1 1 1 1 1 1 1 1 1 1 1 1 1 1 1 1 1 0 1 0 1 1 1 1 1 0 0 0 1 1 1 1 1 1 1 1 0 1 1 1 1 0 0 0 0 0 0 0 0 1
      1 1 1 1 1 1 1 1 1 1 1 1 1 1 1 1 1 1 1 1 1 1 1 1 1 1 1 1 1 1 1 1 1 1 1 1 1 1 1 1 1 1 1 1 1 1 1 0 0 1 0 1 0 0 1 1 1 1 1 1
      1 1 1 1 1 0 0 0 0 0 0 0 0 0 0 1 1 1 1 1 1 1 1 1 1 1 1 1 1 1 4 4 1 1 1 1 1 1 1 1 1 1 1 1 1 1 1 1 1 1 1 1 1 1 1 1 1 1 1 1
      1 1 1 1 1 1 1 0 1 0 1 1 1 1 1 0 0 0 0 0 0 0 1 1 1 0 0 1 0 0 0 0 0 0 0 0 0 1 1 1 1 1 1 1 1 1 1 1 1 1 1 1 4 4 1 1 1 1 1 1
      1 1 1 1 1 1 1 1 1 1 1 1 1 1 1 1 1 1 1 1 1 1 1 1 1 1 1 1 1 1 1 0 1 0 1 1 1 1 1 1 1 1 1 1 1 0 1 0 1 0 0 0 0 0 0 0 0 0 0 1
      1 4 4 1 1 1 1 1 1 1 1 1 1 1 1 4 1 4 4 4 4 4 1 1 1 1 1 1 1 1 1 1 1 1 1 1 1 1 1 1 1 1 1 1 1 1 1 1 1 1 1 1 1 1 1 1 1 1 0 1
      0 0 0 0 0 1 1 1 1 0 1 0 1 0 0 0 0 0 0 0 0 1 1 4 4 4 1 1 1 1 1 1 1 1 1 1 1 1 1 1 1 1 1 1 1 1 4 1 1 4 4 4 4 1 1 1 1 1 1 1
      1 1 1 1 1 1 1 1 1 1 1 1 1 1 1 1 1 1 1 1 1 1 1 0 0 0 1 1 1 1 1 1 1 1 1 1 0 0 1 0 1 0 0 0 0 0 0 0 0 0 0 0 1 1 1 4 4 4 4 4
      4 1 4 4 4 4 4 4 4 4 4 4 4 4 4 4 4 4 4 4 4 4 4 4 4 4 4 1 4 4 4 4 4 4 4 4 4 4 4 4 4 4 4 4 4 4 4 4 4 4 1 1 1 4 1 1 1 1 4 4
      4 4 4 1 1 1 1 4 4 1 4 4 4 4 4 1 4 4 1 4 4 4 4 4 4 4 4 4 4 4 1 1 1 1 4 4 1 1 4 4 1 1 1 1 4 4 1 1 4 1 1 1 1 1 1 1 1 4 4 4
      4 1 1 1 4 4 4 1 1 1 1 1 1 1 1 1 1 1 1 1 1 1 1 1 1 1 1 1 1 1 1 1 1 1 1 1 1 1 1 1 1 0 1 0 0 0 0 0 1 1 1 1 0 1 0 1 0 0 0 0
      0 0 0 0 0 1 1 1 1 1 1 1 1 1 1 1 1 1 1 4 4 4 4 4 1 1 1 1 4 4 4 4 4 4 4 4 4 4 4 4 4 4 4 4 4 4 4 4 1 1 4 4 4 4 4 4 4 4 4 4
      4 4 4 4 4 4 4 4 4 4 4 4 4 4 4 4 4 4 4 4 4 4 4 4 4 1 4 4 1 4 4 4 4 4 1 1 4 4 1 1 4 4 1 1 4 4 1 4 4 4 4 4 4 4 4 4 4 4 4 4
      4 4 4 4 4 4 4 4 4 4 4 4 4 4 4 4 4 1 4 4 1 1 1 4 4 4 4 1 1 4 1 1 1 1 1 1 1 1 1 1 1 0 1 1 1 1 1 1 1 1 1 0 1 0 1 1 1 1 0 0
      0 0 0 0 0 0 0 0 0 0 0 0 1 1 1 1 1 1 1 1 1 4 4 4 4 4 4 4 4 1 4 4 4 4 4 4 4 4 4 4 4 4 4 4 4 4 4 4 4 4 4 4 4 4 4 4 4 4 4 4
      4 4 4 4 4 4 4 4 4 4 4 4 4 4 4 4 4 4 4 4 4 4 4 4 4 4 4 4 4 4 4 4 4 4 4 4 4 4 4 4 4 4 4 4 4 4 4 4 4 4 4 4 4 4 4 4 4 4 4 4
      4 4 4 4 4 4 4 4 4 4 4 4 4 4 4 4 4 4 4 4 4 4 4 4 4 4 4 4 4 4 4 4 4 4 4 4 4 4 4 4 4 4 4 4 4 4 4 4 4 4 4 4 4 4 4 4 4 4 4 4
      4 4 4 4 4 4 4 4 4 4 4 4 4 4 4 4 4 4 4 4 4 4 4 4 4 4 4 4 4 4 4 4 4 4 4 4 4 4 4 4 4 4 4 4 4 4 4 4 4 4 4 4 4 4 4 4 4 4 4 4
      4 4 4 4 4 4 4 4 4 4 4 4 4 4 4 4 4 4 4 4 4 4 4 4 4 4 4 4 4 4 4 4 4 4 4 4 4 4 4 4 4 4 4 4 4 4 4 4 4 4 4 4 4 4 4 4 4 4 4 4
      4 4 4 4 4 4 4 4 4 4 4 4 4 4 4 4 4 4 4 4 4 4 4 4 4 4 1 1 4 4 1 1 1 0 0 1 0 1 0 0 4 4 4 4 4 4 4 4 4 4 4 0 0 0 0 0 0 0 0 0
      0 0 0 0 1 1 1 1 1 1 1 1 1 1 4 4 1 1 1 1 1 1 1 1 1 1 4 4 1 1 4 4 4 4 4 4 4 4 4 4 4 4 4 4 4 4 4 4 4 4 4 4 4 4 4 4 4 4 4 4
      4 4 4 4 4 4 4 4 4 4 4 4 4 4 4 4 4 4 4 4 4 4 4 4 4 4 4 4 4 4 4 4 4 4 4 4 4 4 4 4 4 4 4 4 4 4 4 4 4 4 4 4 4 4 4 4 4 4 4 4
      4 4 4 4 4 4 4 4 4 4 4 4 4 4 4 4 4 4 4 4 4 4 4 4 4 4 4 4 4 4 4 4 4 4 4 4 4 4 4 4 4 4 4 4 4 4 4 4 4 4 4 4 4 4 4 4 4 4 4 4
      4 4 4 4 4 4 4 4 4 4 4 4 4 4 4 4 4 4 4 4 4 4 4 4 4 4 4 4 4 4 4 4 4 4 4 4 4 4 4 4 4 4 4 4 4 4 4 4 4 4 4 4 4 4 4 4 4 4 4 4
      4 4 4 4 4 4 4 4 4 4 4 4 4 4 4 4 4 4 4 4 4 4 4 4 4 4 4 4 4 4 4 4 4 4 4 4 4 4 4 4 4 4 4 4 4 4 4 4 4 4 4 4 4 4 4 4 4 4 4 4
      4 4 4 4 4 4 4 4 4 4 4 4 4 4 4 4 4 4 4 4 4 4 4 4 4 4 4 4 4 4 4 4 4 4 0 4 0 0 0 0 0 4 4 0 4 0 4 4 0 4 0 0 0 0 0 0 0 0 0 0
      0 0 1 1 1 4 1 1 1 4 4 1 1 1 1 1 1 1 1 1 1 1 1 1 1 1 1 1 1 4 4 4 4 4 4 4 4 4 4 4 4 4 4 4 4 4 4 4 4 4 4 4 4 4 4 4 4 4 4 4
      4 4 4 4 4 4 4 4 4 4 4 4 4 4 4 4 4 4 4 4 4 4 4 4 4 4 4 4 4 4 4 4 4 4 4 4 4 4 4 4 4 4 4 4 4 4 4 4 4 4 4 4 4 4 4 4 4 4 4 4
      4 4 4 4 4 4 4 4 4 4 4 4 4 4 4 4 4 4 4 4 4 4 4 4 4 4 4 4 4 4 4 4 4 4 4 4 4 4 4 4 4 4 4 4 4 4 4 4 4 4 4 4 4 4 4 4 4 4 4 4
      4 4 4 4 4 4 4 4 4 4 4 4 4 4 4 4 4 4 4 4 4 4 4 4 4 4 4 4 4 4 4 4 4 4 4 4 4 4 4 4 4 4 4 4 4 4 4 4 4 4 4 4 4 4 4 4 4 4 4 4
      4 4 4 4 4 4 4 4 4 4 4 4 4 4 4 4 4 4 4 4 4 4 4 4 4 4 4 4 4 4 4 4 4 4 4 4 4 4 4 4 4 4 4 4 4 4 4 4 4 4 4 4 4 4 4 4 4 4 4 4
      4 4 4 4 4 4 4 4 4 4 4 4 4 4 4 4 4 4 4 4 4 4 4 4 4 4 4 4 4 4 4 4 4 4 4 4 4 4 4 4 4 4 4 4 4 4 4 4 4 4 4 4 4 4 4 4 4 4 4 4
      4 4 4 4 4 4 4 4 4 4 4 4 4 4 4 4 4 4 4 4 4 4 4 4 4 4 4 4 4 4 4 4 4 4 4 4 4 4 4 4 4 4 4 4 4 4 4 4 4 4 4 4 4 4 4 4 4 4 4 4
      4 4 4 4 4 4 0 0 0 4 4 4 4 0 0 0 0 0 4 4 4 4 0 4 4 4 4 0 0 0 0 0 0 0 0 0 1 4 1 4 4 1 1 1 1 1 1 1 1 1 4 1 1 4 4 1 4 4 4 4
      4 4 4 4 4 4 4 4 4 4 1 1 4 4 1 1 4 4 4 4 4 4 4 4 4 4 4 4 4 4 4 4 4 4 4 4 4 4 4 4 4 1 1 4 4 1 1 4 4 4 4 4 4 4 4 4 4 4 4 4
      4 4 4 4 4 4 4 1 1 1 1 4 4 1 1 4 1 4 4 4 4 4 4 4 4 1 1 4 4 4 4 4 4 4 4 1 4 1 1 1 1 1 4 4 4 4 4 4 4 4 4 4 4 4 4 4 4 4 4 4
      4 4 4 4 4 4 4 4 4 4 4 4 4 4 4 4 4 4 4 4 4 4 4 4 4 4 4 4 1 4 4 4 4 4 4 4 4 1 1 4 4 4 4 4 1 1 4 4 1 4 4 4 4 4 4 4 4 4 4 4
      4 4 4 4 4 4 4 4 4 4 4 4 4 4 4 4 4 4 4 4 4 4 4 4 4 4 4 4 4 4 4 4 4 4 4 4 4 4 4 4 4 4 4 4 4 4 4 4 4 4 4 4 4 4 4 4 4 4 4 4
      4 4 4 4 4 4 4 4 4 4 4 4 4 4 4 4 4 4 4 4 4 4 4 4 4 4 4 4 4 4 4 4 4 4 4 4 4 4 4 4 4 4 4 4 4 4 4 4 4 4 4 4 4 4 4 4 4 4 4 4
      4 4 4 4 4 4 4 4 4 4 4 4 4 4 4 4 4 4 4 4 4 4 4 4 4 4 4 4 4 4 4 4 4 4 4 4 4 4 4 4 4 4 4 4 4 4 4 4 4 4 4 4 4 4 4 4 4 4 4 4
      4 4 4 1 1 4 4 1 1 4 4 4 4 4 4 4 4 4 4 4 4 4 4 4 4 4 4 4 4 4 4 4 4 4 4 4 0 4 4 4 4 0 0 4 4 4 4 0 4 4 4 4 0 0 0 0 0 0 1 4
      4 4 4 4 4 4 4 4 4 1 1 4 4 1 1 1 1 4 4 4 4 4 4 4 4 4 4 4 4 4 4 4 4 4 4 4 4 1 1 1 4 1 1 4 4 4 4 4 4 4 4 4 4 4 4 4 4 4 4 4
      4 4 4 4 4 1 1 4 4 1 1 4 4 4 4 4 4 4 4 4 4 4 4 4 4 4 4 4 4 4 4 4 4 1 1 4 4 1 1 4 1 4 4 4 4 4 4 4 4 4 4 4 4 4 4 4 4 4 4 4
      4 4 4 4 1 4 4 4 4 4 4 4 4 4 4 4 4 4 4 4 4 4 4 4 1 4 1 4 4 4 1 1 4 1 1 1 1 1 1 1 1 1 1 1 1 1 1 1 4 1 1 4 4 1 1 1 1 4 4 1
      1 4 4 4 4 4 1 1 1 1 4 4 4 4 4 4 4 4 4 4 4 4 4 4 4 4 4 4 4 4 1 4 4 4 4 4 4 4 4 4 4 4 4 4 4 4 4 4 4 4 4 4 4 4 4 4 4 1 1 4
      4 1 1 4 4 4 4 4 4 4 4 4 4 4 4 4 4 4 4 4 4 4 1 4 4 4 4 4 4 4 4 4 4 4 4 4 4 4 4 4 4 4 4 4 4 4 4 4 4 4 4 4 4 4 4 4 4 4 4 4
      4 4 4 4 4 4 4 4 4 4 4 4 4 4 4 4 4 4 4 4 4 4 4 4 4 4 4 4 4 4 4 4 4 4 4 4 4 4 4 4 4 4 4 4 4 4 4 4 4 4 4 4 4 4 4 4 4 4 4 4
      4 4 4 4 4 4 4 4 4 4 4 4 4 4 4 4 4 4 4 4 4 4 4 4 4 4 4 4 4 4 4 4 4 4 4 4 4 4 4 4 4 1 1 1 4 4 4 4 4 4 4 4 4 4 4 4 4 4 4 4
      4 0 4 0 4 0 0 0 4 0 4 0 0 4 0 4 0 0 0 0 0 0 0 1 1 1 4 4 4 1 1 4 1 1 1 1 1 1 4 4 4 4 4 4 1 1 1 1 1 1 1 1 1 1 1 1 1 1 1 1
      1 1 1 1 1 4 4 1 1 4 4 1 1 4 4 4 4 4 4 4 4 4 1 1 1 1 1 1 1 4 4 4 4 4 4 1 1 1 1 1 4 0 4 0 0 4 0 4 0 0 0 4 0 1 0 0 1 0 1 0
      0 0 0 0 0 0 1 1 1 1 1 1 4 4 1 1 1 1 1 1 1 1 1 1 1 1 4 4 4 4 4 1 1 1 1 1 1 1 1 1 1 1 1 1 1 1 1 1 1 1 1 0 1 0 0 1 0 1 0 0
      0 1 0 1 0 0 1 0 1 0 0 0 0 0 0 0 1 1 1 1 1 1 1 1 1 1 1 1 1 1 1 1 1 1 1 1 1 4 4 4 1 1 1 1 1 1 1 1 1 1 1 1 1 1 1 1 1 1 1 1
      1 1 1 1 1 1 1 1 1 1 1 1 1 0 0 0 0 0 0 0 0 0 0 0 0 0 0 0 0 1 1 1 1 1 1 1 1 1 1 1 1 1 1 1 1 1 1 1 1 1 4 1 1 1 1 1 1 1 1 1
      1 1 1 1 1 1 1 1 1 1 1 0 1 1 0 1 0 1 1 1 1 1 1 1 1 1 0 1 0 1 1 1 1 0 0 0 0 0 0 0 0 0 0 0 0 0 0 0 1 1 1 1 1 1 1 1 1 1 1 1
      1 1 1 1 1 1 1 1 1 1 1 1 1 1 1 1 1 1 1 1 1 1 1 1 1 1 1 1 1 1 1 1 0 0 1 0 1 0 0 1 1 1 1 1 1 1 1 1 0 1 0 0 0 0 0 0 0 0 0 0
      0 0 0 0 1 1 1 1 1 1 1 1 1 1 1 1 1 1 1 1 1 1 1 1 1 1 1 1 1 1 1 1 1 1 1 1 1 1 1 1 1 1 1 1 1 1 1 1 1 1 1 1 1 1 1 1 1 1 0 1
      0 1 1 1 1 0 0 0 0 0 1 0 1 0 0 0 0 0 0 0 0 0 0 0 0 0 1 1 1 1 1 1 1 1 1 1 1 1 1 1 1 1 1 1 1 1 1 1 1 1 1 1 1 1 1 1 1 1 1 1
      1 1 1 1 1 1 1 1 1 1 1 0 1 0 1 1 1 1 0 1 1 1 1 1 1 1 1 1 1 1 0 1 0 0 0 0 0 0 0 0 0 0 0 0 0 0 0 0 1 1 1 1 1 1 1 1 1 1 1 1
      1 1 1 1 1 1 1 1 1 1 1 1 1 1 1 1 1 1 1 1 1 1 1 1 1 1 1 1 1 1 1 1 1 1 1 1 1 1 1 1 1 0 1 0 1 1 1 1 0 0 0 0 0 1 0 1 0 0 0 0
      0 0 0 0 0 0 0 0 0 0 1 1 1 1 1 1 1 1 1 1 1 1 1 1 1 1 1 1 1 1 1 1 1 1 1 1 1 1 1 1 1 1 1 1 1 1 1 1 1 1 1 1 1 1 0 1 0 1 1 1
      1 0 1 1 1 1 1 1 1 1 0 1 0 0 1 0 0 0 0 0 0 0 0 0 0 0 0 0 0 0 0 0 1 1 1 1 1 1 1 1 1 1 1 1 1 1 1 1 1 1 1 1 1 1 1 1 1 1 1 1
      1 1 1 1 1 1 1 1 1 1 1 1 1 1 0 1 1 0 1 0 0 0 0 0 1 1 1 1 1 0 0 0 1 1 1 1 0 0 0 0 0 0 0 0 0 0 0 0 0 0 0 1 1 1 1 1 1 1 1 1
      1 1 1 1 1 1 1 1 1 1 1 1 1 1 1 1 1 1 1 1 1 1 1 1 1 1 1 1 1 1 1 1 1 1 1 1 1 1 1 1 1 1 0 1 0 0 1 0 1 0 0 0 0 0 0 0 0 0 0 0
      0 0 0 0 1 1 1 1 1 1 1 1 1 1 1 1 1 1 1 1 1 1 1 1 1 1 1 1 1 1 1 1 1 1 1 1 1 1 1 1 1 1 1 1 1 1 0 1 0 1 1 1 1 1 1 0 1 0 1 1
      1 1 1 0 1 0 0 0 0 0 0 0 0 0 0 0 0 0 0 0 0 0 0 1 1 1 1 1 1 1 1 1 1 1 1 1 1 1 1 1 1 1 1 1 1 1 1 1 1 1 1 1 1 1 1 1 1 1 1 1
      1 1 1 1 1 0 1 1 1 1 0 1 1 1 1 1 1 1 1 0 1 1 1 1 0 0 0 0 0 0 0 0 0 0 0 0 1 1 1 1 1 1 1 1 1 1 1 1 1 1 1 1 1 1 1 1 1 1 1 1
      1 1 1 1 1 1 1 1 1 1 1 1 1 1 1 1 1 0 0 1 0 1 0 0 1 1 1 1 1 0 1 0 0 1 0 1 0 0 0 0 0 0 0 0 0 0 0 0 0 1 1 1 1 1 1 1 1 1 1 1
      1 1 1 1 1 1 1 1 1 1 1 1 1 1 1 1 1 1 1 1 1 1 1 1 1 1 1 1 1 1 1 1 1 1 0 1 0 0 0 0 1 1 1 1 1 1 1 1 1 1 0 0 0 0 0 0 0 0 0 0
      0 0 0 0 0 1 1 1 1 1 1 1 1 1 1 1 1 1 1 1 1 1 1 1 1 1 1 1 1 1 1 1 1 1 1 1 1 1 1 1 1 1 1 1 1 1 1 1 1 0 0 0 0 1 1 1 1 1 1 1
      1 1 1 0 0 0 0 0 0 0 0 0 0 0 0 0 0 0 1 1 1 1 1 1 1 1 1 1 1 1 1 1 1 1 1 1 1 1 1 1 1 1 1 1 1 1 1 1 1 1 1 1 1 1 1 1 1 1 1 1
      1 0 0 0 0 0 1 1 0 1 0 1 1 0 1 0 0 0 0 0 0 0 0 0 0 0 0 0 0 0 0

                  IDOMAIN FOR LAYER 2
      2 2 2 2 2 2 2 2 2 2 2 2 2 2 2 2 2 2 2 2 2 2 2 2 2 2 2 2 2 2 2 2 2 2 2 2 2 2 2 2 2 2 2 2 2 2 2 2 2 2 2 2 2 2 2 2 2 2 2 2
      2 0 2 0 2 2 2 2 0 2 0 2 0 0 0 0 0 0 0 0 0 0 2 2 2 2 2 2 2 2 2 2 2 2 2 2 2 2 2 2 2 2 2 2 2 2 2 2 2 2 2 2 2 2 2 2 2 2 2 2
      2 2 2 2 2 2 2 2 2 2 2 0 2 0 0 2 0 0 0 0 2 2 2 2 2 2 2 0 2 0 0 0 0 0 0 0 0 0 2 2 2 2 2 2 2 2 2 2 2 2 2 2 2 2 2 2 2 2 2 2
      2 2 2 2 2 2 2 2 2 2 2 2 2 2 2 2 2 2 2 2 2 2 2 2 2 2 2 2 2 2 0 0 0 2 2 2 2 0 0 0 0 0 2 0 2 0 0 2 0 2 0 0 0 0 0 0 0 2 2 2
      2 2 2 2 2 2 2 2 2 2 2 2 2 2 2 2 2 2 2 2 2 2 2 2 2 2 2 2 2 2 2 2 2 2 2 2 2 2 2 2 2 2 2 2 2 2 2 2 2 2 2 2 2 2 2 2 2 0 0 0
      0 0 0 0 0 0 0 0 0 0 2 2 2 2 2 2 2 2 2 2 2 2 2 2 2 2 2 2 2 2 2 2 2 2 2 2 2 2 2 2 2 2 2 2 2 2 2 2 2 2 2 2 2 2 2 2 2 2 2 2
      2 2 2 2 2 2 2 2 2 0 0 0 0 0 0 0 0 0 0 0 2 2 2 2 2 2 2 2 2 2 2 2 2 2 2 2 2 2 2 2 2 2 2 2 2 2 2 2 2 2 2 2 2 2 2 2 2 2 2 2
      2 2 2 2 2 2 2 2 2 2 2 0 2 0 0 2 0 2 0 0 0 2 0 2 2 0 2 2 2 2 0 0 0 2 2 2 2 2 2 2 2 2 2 2 2 2 2 2 2 2 2 2 2 2 2 2 2 2 2 2
      2 2 2 2 2 2 2 2 2 2 2 2 2 2 2 2 2 2 2 2 2 0 2 2 2 2 2 0 2 0 0 0 0 0 2 2 0 2 0 2 2 0 2 2 0 0 0 0 0 0 0 0 2 2 2 2 2 2 2 2
      2 2 2 2 2 2 2 2 2 2 2 2 2 2 2 2 2 2 2 2 2 2 2 2 2 2 2 2 2 2 2 2 2 2 2 2 2 2 2 2 2 2 2 0 0 0 0 2 0 0 2 2 2 2 2 0 2 0 0 2
      0 2 0 0 0 0 0 0 2 2 2 2 2 2 2 2 2 2 2 2 2 2 2 2 2 2 2 2 2 2 2 2 2 2 2 2 2 2 2 2 2 2 2 2 2 2 2 2 2 2 2 2 2 2 2 2 2 0 2 2
      2 2 0 2 2 2 2 2 2 2 2 0 2 2 2 2 0 0 0 0 0 2 2 2 2 2 2 2 2 2 2 2 2 2 2 2 2 2 2 2 2 2 2 2 2 2 2 2 2 2 2 2 2 2 2 2 2 2 2 2
      2 2 2 2 2 2 2 2 2 2 2 0 2 0 2 2 0 2 0 2 2 2 0 2 0 2 2 0 2 0 0 0 0 0 0 0 0 0 0 0 2 2 2 2 2 2 2 2 2 2 2 2 2 2 2 2 2 2 2 2
      2 2 2 2 2 2 2 2 2 2 2 2 2 2 2 2 2 2 2 2 2 2 2 2 2 2 2 0 2 0 2 2 2 2 2 0 0 0 2 2 2 2 2 2 2 2 0 2 2 2 2 0 0 0 0 0 0 0 0 2
      2 2 2 2 2 2 2 2 2 2 2 2 2 2 2 2 2 2 2 2 2 2 2 2 2 2 2 2 2 2 2 2 2 2 2 2 2 2 2 2 2 2 2 2 2 2 2 0 0 2 0 2 0 0 2 2 2 2 2 2
      2 2 2 2 2 0 0 0 0 0 0 0 0 0 0 2 2 2 2 2 2 2 2 2 2 2 2 2 2 2 2 2 2 2 2 2 2 2 2 2 2 2 2 2 2 2 2 2 2 2 2 2 2 2 2 2 2 2 2 2
      2 2 2 2 2 2 2 0 2 0 2 2 2 2 2 0 0 0 0 0 0 0 2 2 2 0 0 2 0 0 0 0 0 0 0 0 0 2 2 2 2 2 2 2 2 2 2 2 2 2 2 2 2 2 2 2 2 2 2 2
      2 2 2 2 2 2 2 2 2 2 2 2 2 2 2 2 2 2 2 2 2 2 2 2 2 2 2 2 2 2 2 0 2 0 2 2 2 2 2 2 2 2 2 2 2 0 2 0 2 0 0 0 0 0 0 0 0 0 0 2
      2 2 2 2 2 2 2 2 2 2 2 2 2 2 2 2 2 2 2 2 2 2 2 2 2 2 2 2 2 2 2 2 2 2 2 2 2 2 2 2 2 2 2 2 2 2 2 2 2 2 2 2 2 2 2 2 2 2 0 2
      0 0 0 0 0 2 2 2 2 0 2 0 2 0 0 0 0 0 0 0 0 2 2 2 2 2 2 2 2 2 2 2 2 2 2 2 2 2 2 2 2 2 2 2 2 2 2 2 2 2 2 2 2 2 2 2 2 2 2 2
      2 2 2 2 2 2 2 2 2 2 2 2 2 2 2 2 2 2 2 2 2 2 2 0 0 0 2 2 2 2 2 2 2 2 2 2 0 0 2 0 2 0 0 0 0 0 0 0 0 0 0 0 2 2 2 2 2 2 2 2
      2 2 2 2 2 2 2 2 2 2 2 2 2 2 2 2 2 2 2 2 2 2 2 2 2 2 2 2 2 2 2 2 2 2 2 2 2 2 2 2 2 2 2 2 2 2 2 2 2 2 2 2 2 2 2 2 2 2 2 2
      2 2 2 2 2 2 2 2 2 2 2 2 2 2 2 2 2 2 2 2 2 2 2 2 2 2 2 2 2 2 2 2 2 2 2 2 2 2 2 2 2 2 2 2 2 2 2 2 2 2 2 2 2 2 2 2 2 2 2 2
      2 2 2 2 2 2 2 2 2 2 2 2 2 2 2 2 2 2 2 2 2 2 2 2 2 2 2 2 2 2 2 2 2 2 2 2 2 2 2 2 2 0 2 0 0 0 0 0 2 2 2 2 0 2 0 2 0 0 0 0
      0 0 0 0 0 2 2 2 2 2 2 2 2 2 2 2 2 2 2 2 2 2 2 2 2 2 2 2 2 2 2 2 2 2 2 2 2 2 2 2 2 2 2 2 2 2 2 2 2 2 2 2 2 2 2 2 2 2 2 2
      2 2 2 2 2 2 2 2 2 2 2 2 2 2 2 2 2 2 2 2 2 2 2 2 2 2 2 2 2 2 2 2 2 2 2 2 2 2 2 2 2 2 2 2 2 2 2 2 2 2 2 2 2 2 2 2 2 2 2 2
      2 2 2 2 2 2 2 2 2 2 2 2 2 2 2 2 2 2 2 2 2 2 2 2 2 2 2 2 2 2 2 2 2 2 2 2 2 2 2 2 2 0 2 2 2 2 2 2 2 2 2 0 2 0 2 2 2 2 0 0
      0 0 0 0 0 0 0 0 0 0 0 0 2 2 2 2 2 2 2 2 2 2 2 2 2 2 2 2 2 2 2 2 2 2 2 2 2 2 2 2 2 2 2 2 2 2 2 2 2 2 2 2 2 2 2 2 2 2 2 2
      2 2 2 2 2 2 2 2 2 2 2 2 2 2 2 2 2 2 2 2 2 2 2 2 2 2 2 2 2 2 2 2 2 2 2 2 2 2 2 2 2 2 2 2 2 2 2 2 2 2 2 2 2 2 2 2 2 2 2 2
      2 2 2 2 2 2 2 2 2 2 2 2 2 2 2 2 2 2 2 2 2 2 2 2 2 2 2 2 2 2 2 2 2 2 2 2 2 2 2 2 2 2 2 2 2 2 2 2 2 2 2 2 2 2 2 2 2 2 2 2
      2 2 2 2 2 2 2 2 2 2 2 2 2 2 2 2 2 2 2 2 2 2 2 2 2 2 2 2 2 2 2 2 2 2 2 2 2 2 2 2 2 2 2 2 2 2 2 2 2 2 2 2 2 2 2 2 2 2 2 2
      2 2 2 2 2 2 2 2 2 2 2 2 2 2 2 2 2 2 2 2 2 2 2 2 2 2 2 2 2 2 2 2 2 2 2 2 2 2 2 2 2 2 2 2 2 2 2 2 2 2 2 2 2 2 2 2 2 2 2 2
      2 2 2 2 2 2 2 2 2 2 2 2 2 2 2 2 2 2 2 2 2 2 2 2 2 2 2 2 2 2 2 2 2 0 0 2 0 2 0 0 2 2 2 2 2 2 2 2 2 2 2 0 0 0 0 0 0 0 0 0
      0 0 0 0 2 2 2 2 2 2 2 2 2 2 2 2 2 2 2 2 2 2 2 2 2 2 2 2 2 2 2 2 2 2 2 2 2 2 2 2 2 2 2 2 2 2 2 2 2 2 2 2 2 2 2 2 2 2 2 2
      2 2 2 2 2 2 2 2 2 2 2 2 2 2 2 2 2 2 2 2 2 2 2 2 2 2 2 2 2 2 2 2 2 2 2 2 2 2 2 2 2 2 2 2 2 2 2 2 2 2 2 2 2 2 2 2 2 2 2 2
      2 2 2 2 2 2 2 2 2 2 2 2 2 2 2 2 2 2 2 2 2 2 2 2 2 2 2 2 2 2 2 2 2 2 2 2 2 2 2 2 2 2 2 2 2 2 2 2 2 2 2 2 2 2 2 2 2 2 2 2
      2 2 2 2 2 2 2 2 2 2 2 2 2 2 2 2 2 2 2 2 2 2 2 2 2 2 2 2 2 2 2 2 2 2 2 2 2 2 2 2 2 2 2 2 2 2 2 2 2 2 2 2 2 2 2 2 2 2 2 2
      2 2 2 2 2 2 2 2 2 2 2 2 2 2 2 2 2 2 2 2 2 2 2 2 2 2 2 2 2 2 2 2 2 2 2 2 2 2 2 2 2 2 2 2 2 2 2 2 2 2 2 2 2 2 2 2 2 2 2 2
      2 2 2 2 2 2 2 2 2 2 2 2 2 2 2 2 2 2 2 2 2 2 2 2 2 2 2 2 2 2 2 2 2 2 0 2 0 0 0 0 0 2 2 0 2 0 2 2 0 2 0 0 0 0 0 0 0 0 0 0
      0 0 2 2 2 2 2 2 2 2 2 2 2 2 2 2 2 2 2 2 2 2 2 2 2 2 2 2 2 2 2 2 2 2 2 2 2 2 2 2 2 2 2 2 2 2 2 2 2 2 2 2 2 2 2 2 2 2 2 2
      2 2 2 2 2 2 2 2 2 2 2 2 2 2 2 2 2 2 2 2 2 2 2 2 2 2 2 2 2 2 2 2 2 2 2 2 2 2 2 2 2 2 2 2 2 2 2 2 2 2 2 2 2 2 2 2 2 2 2 2
      2 2 2 2 2 2 2 2 2 2 2 2 2 2 2 2 2 2 2 2 2 2 2 2 2 2 2 2 2 2 2 2 2 2 2 2 2 2 2 2 2 2 2 2 2 2 2 2 2 2 2 2 2 2 2 2 2 2 2 2
      2 2 2 2 2 2 2 2 2 2 2 2 2 2 2 2 2 2 2 2 2 2 2 2 2 2 2 2 2 2 2 2 2 2 2 2 2 2 2 2 2 2 2 2 2 2 2 2 2 2 2 2 2 2 2 2 2 2 2 2
      2 2 2 2 2 2 2 2 2 2 2 2 2 2 2 2 2 2 2 2 2 2 2 2 2 2 2 2 2 2 2 2 2 2 2 2 2 2 2 2 2 2 2 2 2 2 2 2 2 2 2 2 2 2 2 2 2 2 2 2
      2 2 2 2 2 2 2 2 2 2 2 2 2 2 2 2 2 2 2 2 2 2 2 2 2 2 2 2 2 2 2 2 2 2 2 2 2 2 2 2 2 2 2 2 2 2 2 2 2 2 2 2 2 2 2 2 2 2 2 2
      2 2 2 2 2 2 2 2 2 2 2 2 2 2 2 2 2 2 2 2 2 2 2 2 2 2 2 2 2 2 2 2 2 2 2 2 2 2 2 2 2 2 2 2 2 2 2 2 2 2 2 2 2 2 2 2 2 2 2 2
      2 2 2 2 2 2 0 0 0 2 2 2 2 0 0 0 0 0 2 2 2 2 0 2 2 2 2 0 0 0 0 0 0 0 0 0 2 2 2 2 2 2 2 2 2 2 2 2 2 2 2 2 2 2 2 2 2 2 2 2
      2 2 2 2 2 2 2 2 2 2 2 2 2 2 2 2 2 2 2 2 2 2 2 2 2 2 2 2 2 2 2 2 2 2 2 2 2 2 2 2 2 2 2 2 2 2 2 2 2 2 2 2 2 2 2 2 2 2 2 2
      2 2 2 2 2 2 2 2 2 2 2 2 2 2 2 2 2 2 2 2 2 2 2 2 2 2 2 2 2 2 2 2 2 2 2 2 2 2 2 2 2 2 2 2 2 2 2 2 2 2 2 2 2 2 2 2 2 2 2 2
      2 2 2 2 2 2 2 2 2 2 2 2 2 2 2 2 2 2 2 2 2 2 2 2 2 2 2 2 2 2 2 2 2 2 2 2 2 2 2 2 2 2 2 2 2 2 2 2 2 2 2 2 2 2 2 2 2 2 2 2
      2 2 2 2 2 2 2 2 2 2 2 2 2 2 2 2 2 2 2 2 2 2 2 2 2 2 2 2 2 2 2 2 2 2 2 2 2 2 2 2 2 2 2 2 2 2 2 2 2 2 2 2 2 2 2 2 2 2 2 2
      2 2 2 2 2 2 2 2 2 2 2 2 2 2 2 2 2 2 2 2 2 2 2 2 2 2 2 2 2 2 2 2 2 2 2 2 2 2 2 2 2 2 2 2 2 2 2 2 2 2 2 2 2 2 2 2 2 2 2 2
      2 2 2 2 2 2 2 2 2 2 2 2 2 2 2 2 2 2 2 2 2 2 2 2 2 2 2 2 2 2 2 2 2 2 2 2 2 2 2 2 2 2 2 2 2 2 2 2 2 2 2 2 2 2 2 2 2 2 2 2
      2 2 2 2 2 2 2 2 2 2 2 2 2 2 2 2 2 2 2 2 2 2 2 2 2 2 2 2 2 2 2 2 2 2 2 2 0 2 2 2 2 0 0 2 2 2 2 0 2 2 2 2 0 0 0 0 0 0 2 2
      2 2 2 2 2 2 2 2 2 2 2 2 2 2 2 2 2 2 2 2 2 2 2 2 2 2 2 2 2 2 2 2 2 2 2 2 2 2 2 2 2 2 2 2 2 2 2 2 2 2 2 2 2 2 2 2 2 2 2 2
      2 2 2 2 2 2 2 2 2 2 2 2 2 2 2 2 2 2 2 2 2 2 2 2 2 2 2 2 2 2 2 2 2 2 2 2 2 2 2 2 2 2 2 2 2 2 2 2 2 2 2 2 2 2 2 2 2 2 2 2
      2 2 2 2 2 2 2 2 2 2 2 2 2 2 2 2 2 2 2 2 2 2 2 2 2 2 2 2 2 2 2 2 2 2 2 2 2 2 2 2 2 2 2 2 2 2 2 2 2 2 2 2 2 2 2 2 2 2 2 2
      2 2 2 2 2 2 2 2 2 2 2 2 2 2 2 2 2 2 2 2 2 2 2 2 2 2 2 2 2 2 2 2 2 2 2 2 2 2 2 2 2 2 2 2 2 2 2 2 2 2 2 2 2 2 2 2 2 2 2 2
      2 2 2 2 2 2 2 2 2 2 2 2 2 2 2 2 2 2 2 2 2 2 2 2 2 2 2 2 2 2 2 2 2 2 2 2 2 2 2 2 2 2 2 2 2 2 2 2 2 2 2 2 2 2 2 2 2 2 2 2
      2 2 2 2 2 2 2 2 2 2 2 2 2 2 2 2 2 2 2 2 2 2 2 2 2 2 2 2 2 2 2 2 2 2 2 2 2 2 2 2 2 2 2 2 2 2 2 2 2 2 2 2 2 2 2 2 2 2 2 2
      2 2 2 2 2 2 2 2 2 2 2 2 2 2 2 2 2 2 2 2 2 2 2 2 2 2 2 2 2 2 2 2 2 2 2 2 2 2 2 2 2 2 2 2 2 2 2 2 2 2 2 2 2 2 2 2 2 2 2 2
      2 0 2 0 2 0 0 0 2 0 2 0 0 2 0 2 0 0 0 0 0 0 0 2 2 2 2 2 2 2 2 2 2 2 2 2 2 2 2 2 2 2 2 2 2 2 2 2 2 2 2 2 2 2 2 2 2 2 2 2
      2 2 2 2 2 2 2 2 2 2 2 2 2 2 2 2 2 2 2 2 2 2 2 2 2 2 2 2 2 2 2 2 2 2 2 2 2 2 2 2 2 0 2 0 0 2 0 2 0 0 0 2 0 2 0 0 2 0 2 0
      0 0 0 0 0 0 2 2 2 2 2 2 2 2 2 2 2 2 2 2 2 2 2 2 2 2 2 2 2 2 2 2 2 2 2 2 2 2 2 2 2 2 2 2 2 2 2 2 2 2 2 0 2 0 0 2 0 2 0 0
      0 2 0 2 0 0 2 0 2 0 0 0 0 0 0 0 2 2 2 2 2 2 2 2 2 2 2 2 2 2 2 2 2 2 2 2 2 2 2 2 2 2 2 2 2 2 2 2 2 2 2 2 2 2 2 2 2 2 2 2
      2 2 2 2 2 2 2 2 2 2 2 2 2 0 0 0 0 0 0 0 0 0 0 0 0 0 0 0 0 2 2 2 2 2 2 2 2 2 2 2 2 2 2 2 2 2 2 2 2 2 2 2 2 2 2 2 2 2 2 2
      2 2 2 2 2 2 2 2 2 2 2 0 2 2 0 2 0 2 2 2 2 2 2 2 2 2 0 2 0 2 2 2 2 0 0 0 0 0 0 0 0 0 0 0 0 0 0 0 2 2 2 2 2 2 2 2 2 2 2 2
      2 2 2 2 2 2 2 2 2 2 2 2 2 2 2 2 2 2 2 2 2 2 2 2 2 2 2 2 2 2 2 2 0 0 2 0 2 0 0 2 2 2 2 2 2 2 2 2 0 2 0 0 0 0 0 0 0 0 0 0
      0 0 0 0 2 2 2 2 2 2 2 2 2 2 2 2 2 2 2 2 2 2 2 2 2 2 2 2 2 2 2 2 2 2 2 2 2 2 2 2 2 2 2 2 2 2 2 2 2 2 2 2 2 2 2 2 2 2 0 2
      0 2 2 2 2 0 0 0 0 0 2 0 2 0 0 0 0 0 0 0 0 0 0 0 0 0 2 2 2 2 2 2 2 2 2 2 2 2 2 2 2 2 2 2 2 2 2 2 2 2 2 2 2 2 2 2 2 2 2 2
      2 2 2 2 2 2 2 2 2 2 2 0 2 0 2 2 2 2 0 2 2 2 2 2 2 2 2 2 2 2 0 2 0 0 0 0 0 0 0 0 0 0 0 0 0 0 0 0 2 2 2 2 2 2 2 2 2 2 2 2
      2 2 2 2 2 2 2 2 2 2 2 2 2 2 2 2 2 2 2 2 2 2 2 2 2 2 2 2 2 2 2 2 2 2 2 2 2 2 2 2 2 0 2 0 2 2 2 2 0 0 0 0 0 2 0 2 0 0 0 0
      0 0 0 0 0 0 0 0 0 0 2 2 2 2 2 2 2 2 2 2 2 2 2 2 2 2 2 2 2 2 2 2 2 2 2 2 2 2 2 2 2 2 2 2 2 2 2 2 2 2 2 2 2 2 0 2 0 2 2 2
      2 0 2 2 2 2 2 2 2 2 0 2 0 0 2 0 0 0 0 0 0 0 0 0 0 0 0 0 0 0 0 0 2 2 2 2 2 2 2 2 2 2 2 2 2 2 2 2 2 2 2 2 2 2 2 2 2 2 2 2
      2 2 2 2 2 2 2 2 2 2 2 2 2 2 0 2 2 0 2 0 0 0 0 0 2 2 2 2 2 0 0 0 2 2 2 2 0 0 0 0 0 0 0 0 0 0 0 0 0 0 0 2 2 2 2 2 2 2 2 2
      2 2 2 2 2 2 2 2 2 2 2 2 2 2 2 2 2 2 2 2 2 2 2 2 2 2 2 2 2 2 2 2 2 2 2 2 2 2 2 2 2 2 0 2 0 0 2 0 2 0 0 0 0 0 0 0 0 0 0 0
      0 0 0 0 2 2 2 2 2 2 2 2 2 2 2 2 2 2 2 2 2 2 2 2 2 2 2 2 2 2 2 2 2 2 2 2 2 2 2 2 2 2 2 2 2 2 0 2 0 2 2 2 2 2 2 0 2 0 2 2
      2 2 2 0 2 0 0 0 0 0 0 0 0 0 0 0 0 0 0 0 0 0 0 2 2 2 2 2 2 2 2 2 2 2 2 2 2 2 2 2 2 2 2 2 2 2 2 2 2 2 2 2 2 2 2 2 2 2 2 2
      2 2 2 2 2 0 2 2 2 2 0 2 2 2 2 2 2 2 2 0 2 2 2 2 0 0 0 0 0 0 0 0 0 0 0 0 2 2 2 2 2 2 2 2 2 2 2 2 2 2 2 2 2 2 2 2 2 2 2 2
      2 2 2 2 2 2 2 2 2 2 2 2 2 2 2 2 2 0 0 2 0 2 0 0 2 2 2 2 2 0 2 0 0 2 0 2 0 0 0 0 0 0 0 0 0 0 0 0 0 2 2 2 2 2 2 2 2 2 2 2
      2 2 2 2 2 2 2 2 2 2 2 2 2 2 2 2 2 2 2 2 2 2 2 2 2 2 2 2 2 2 2 2 2 2 0 2 0 0 0 0 2 2 2 2 2 2 2 2 2 2 0 0 0 0 0 0 0 0 0 0
      0 0 0 0 0 2 2 2 2 2 2 2 2 2 2 2 2 2 2 2 2 2 2 2 2 2 2 2 2 2 2 2 2 2 2 2 2 2 2 2 2 2 2 2 2 2 2 2 2 0 0 0 0 2 2 2 2 2 2 2
      2 2 2 0 0 0 0 0 0 0 0 0 0 0 0 0 0 0 2 2 2 2 2 2 2 2 2 2 2 2 2 2 2 2 2 2 2 2 2 2 2 2 2 2 2 2 2 2 2 2 2 2 2 2 2 2 2 2 2 2
      2 0 0 0 0 0 2 2 0 2 0 2 2 0 2 0 0 0 0 0 0 0 0 0 0 0 0 0 0 0 0

                  IDOMAIN FOR LAYER 3
      3 3 3 3 3 3 3 3 3 3 3 3 3 3 3 3 3 3 3 3 3 3 3 3 3 3 3 3 3 3 3 3 3 3 3 3 3 3 3 3 3 3 3 3 3 3 3 3 3 3 3 3 3 3 3 3 3 3 3 3
      3 0 3 0 3 3 3 3 0 3 0 3 0 0 0 0 0 0 0 0 0 0 3 3 3 3 3 3 3 3 3 3 3 3 3 3 3 3 3 3 3 3 3 3 3 3 3 3 3 3 3 3 3 3 3 3 3 3 3 3
      3 3 3 3 3 3 3 3 3 3 3 0 3 0 0 3 0 0 0 0 3 3 3 3 3 3 3 0 3 0 0 0 0 0 0 0 0 0 3 3 3 3 3 3 3 3 3 3 3 3 3 3 3 3 3 3 3 3 3 3
      3 3 3 3 3 3 3 3 3 3 3 3 3 3 3 3 3 3 3 3 3 3 3 3 3 3 3 3 3 3 0 0 0 3 3 3 3 0 0 0 0 0 3 0 3 0 0 3 0 3 0 0 0 0 0 0 0 3 3 3
      3 3 3 3 3 3 3 3 3 3 3 3 3 3 3 3 3 3 3 3 3 3 3 3 3 3 3 3 3 3 3 3 3 3 3 3 3 3 3 3 3 3 3 3 3 3 3 3 3 3 3 3 3 3 3 3 3 0 0 0
      0 0 0 0 0 0 0 0 0 0 3 3 3 3 3 3 3 3 3 3 3 3 3 3 3 3 3 3 3 3 3 3 3 3 3 3 3 3 3 3 3 3 3 3 3 3 3 3 3 3 3 3 3 3 3 3 3 3 3 3
      3 3 3 3 3 3 3 3 3 0 0 0 0 0 0 0 0 0 0 0 3 3 3 3 3 3 3 3 3 3 3 3 3 3 3 3 3 3 3 3 3 3 3 3 3 3 3 3 3 3 3 3 3 3 3 3 3 3 3 3
      3 3 3 3 3 3 3 3 3 3 3 0 3 0 0 3 0 3 0 0 0 3 0 3 3 0 3 3 3 3 0 0 0 3 3 3 3 3 3 3 3 3 3 3 3 3 3 3 3 3 3 3 3 3 3 3 3 3 3 3
      3 3 3 3 3 3 3 3 3 3 3 3 3 3 3 3 3 3 3 3 3 0 3 3 3 3 3 0 3 0 0 0 0 0 3 3 0 3 0 3 3 0 3 3 0 0 0 0 0 0 0 0 3 3 3 3 3 3 3 3
      3 3 3 3 3 3 3 3 3 3 3 3 3 3 3 3 3 3 3 3 3 3 3 3 3 3 3 3 3 3 3 3 3 3 3 3 3 3 3 3 3 3 3 0 0 0 0 3 0 0 3 3 3 3 3 0 3 0 0 3
      0 3 0 0 0 0 0 0 3 3 3 3 3 3 3 3 3 3 3 3 3 3 3 3 3 3 3 3 3 3 3 3 3 3 3 3 3 3 3 3 3 3 3 3 3 3 3 3 3 3 3 3 3 3 3 3 3 0 3 3
      3 3 0 3 3 3 3 3 3 3 3 0 3 3 3 3 0 0 0 0 0 3 3 3 3 3 3 3 3 3 3 3 3 3 3 3 3 3 3 3 3 3 3 3 3 3 3 3 3 3 3 3 3 3 3 3 3 3 3 3
      3 3 3 3 3 3 3 3 3 3 3 0 3 0 3 3 0 3 0 3 3 3 0 3 0 3 3 0 3 0 0 0 0 0 0 0 0 0 0 0 3 3 3 3 3 3 3 3 3 3 3 3 3 3 3 3 3 3 3 3
      3 3 3 3 3 3 3 3 3 3 3 3 3 3 3 3 3 3 3 3 3 3 3 3 3 3 3 0 3 0 3 3 3 3 3 0 0 0 3 3 3 3 3 3 3 3 0 3 3 3 3 0 0 0 0 0 0 0 0 3
      3 3 3 3 3 3 3 3 3 3 3 3 3 3 3 3 3 3 3 3 3 3 3 3 3 3 3 3 3 3 3 3 3 3 3 3 3 3 3 3 3 3 3 3 3 3 3 0 0 3 0 3 0 0 3 3 3 3 3 3
      3 3 3 3 3 0 0 0 0 0 0 0 0 0 0 3 3 3 3 3 3 3 3 3 3 3 3 3 3 3 3 3 3 3 3 3 3 3 3 3 3 3 3 3 3 3 3 3 3 3 3 3 3 3 3 3 3 3 3 3
      3 3 3 3 3 3 3 0 3 0 3 3 3 3 3 0 0 0 0 0 0 0 3 3 3 0 0 3 0 0 0 0 0 0 0 0 0 3 3 3 3 3 3 3 3 3 3 3 3 3 3 3 3 3 3 3 3 3 3 3
      3 3 3 3 3 3 3 3 3 3 3 3 3 3 3 3 3 3 3 3 3 3 3 3 3 3 3 3 3 3 3 0 3 0 3 3 3 3 3 3 3 3 3 3 3 0 3 0 3 0 0 0 0 0 0 0 0 0 0 3
      3 3 3 3 3 3 3 3 3 3 3 3 3 3 3 3 3 3 3 3 3 3 3 3 3 3 3 3 3 3 3 3 3 3 3 3 3 3 3 3 3 3 3 3 3 3 3 3 3 3 3 3 3 3 3 3 3 3 0 3
      0 0 0 0 0 3 3 3 3 0 3 0 3 0 0 0 0 0 0 0 0 3 3 3 3 3 3 3 3 3 3 3 3 3 3 3 3 3 3 3 3 3 3 3 3 3 3 3 3 3 3 3 3 3 3 3 3 3 3 3
      3 3 3 3 3 3 3 3 3 3 3 3 3 3 3 3 3 3 3 3 3 3 3 0 0 0 3 3 3 3 3 3 3 3 3 3 0 0 3 0 3 0 0 0 0 0 0 0 0 0 0 0 3 3 3 3 3 3 3 3
      3 3 3 3 3 3 3 3 3 3 3 3 3 3 3 3 3 3 3 3 3 3 3 3 3 3 3 3 3 3 3 3 3 3 3 3 3 3 3 3 3 3 3 3 3 3 3 3 3 3 3 3 3 3 3 3 3 3 3 3
      3 3 3 3 3 3 3 3 3 3 3 3 3 3 3 3 3 3 3 3 3 3 3 3 3 3 3 3 3 3 3 3 3 3 3 3 3 3 3 3 3 3 3 3 3 3 3 3 3 3 3 3 3 3 3 3 3 3 3 3
      3 3 3 3 3 3 3 3 3 3 3 3 3 3 3 3 3 3 3 3 3 3 3 3 3 3 3 3 3 3 3 3 3 3 3 3 3 3 3 3 3 0 3 0 0 0 0 0 3 3 3 3 0 3 0 3 0 0 0 0
      0 0 0 0 0 3 3 3 3 3 3 3 3 3 3 3 3 3 3 3 3 3 3 3 3 3 3 3 3 3 3 3 3 3 3 3 3 3 3 3 3 3 3 3 3 3 3 3 3 3 3 3 3 3 3 3 3 3 3 3
      3 3 3 3 3 3 3 3 3 3 3 3 3 3 3 3 3 3 3 3 3 3 3 3 3 3 3 3 3 3 3 3 3 3 3 3 3 3 3 3 3 3 3 3 3 3 3 3 3 3 3 3 3 3 3 3 3 3 3 3
      3 3 3 3 3 3 3 3 3 3 3 3 3 3 3 3 3 3 3 3 3 3 3 3 3 3 3 3 3 3 3 3 3 3 3 3 3 3 3 3 3 0 3 3 3 3 3 3 3 3 3 0 3 0 3 3 3 3 0 0
      0 0 0 0 0 0 0 0 0 0 0 0 3 3 3 3 3 3 3 3 3 3 3 3 3 3 3 3 3 3 3 3 3 3 3 3 3 3 3 3 3 3 3 3 3 3 3 3 3 3 3 3 3 3 3 3 3 3 3 3
      3 3 3 3 3 3 3 3 3 3 3 3 3 3 3 3 3 3 3 3 3 3 3 3 3 3 3 3 3 3 3 3 3 3 3 3 3 3 3 3 3 3 3 3 3 3 3 3 3 3 3 3 3 3 3 3 3 3 3 3
      3 3 3 3 3 3 3 3 3 3 3 3 3 3 3 3 3 3 3 3 3 3 3 3 3 3 3 3 3 3 3 3 3 3 3 3 3 3 3 3 3 3 3 3 3 3 3 3 3 3 3 3 3 3 3 3 3 3 3 3
      3 3 3 3 3 3 3 3 3 3 3 3 3 3 3 3 3 3 3 3 3 3 3 3 3 3 3 3 3 3 3 3 3 3 3 3 3 3 3 3 3 3 3 3 3 3 3 3 3 3 3 3 3 3 3 3 3 3 3 3
      3 3 3 3 3 3 3 3 3 3 3 3 3 3 3 3 3 3 3 3 3 3 3 3 3 3 3 3 3 3 3 3 3 3 3 3 3 3 3 3 3 3 3 3 3 3 3 3 3 3 3 3 3 3 3 3 3 3 3 3
      3 3 3 3 3 3 3 3 3 3 3 3 3 3 3 3 3 3 3 3 3 3 3 3 3 3 3 3 3 3 3 3 3 0 0 3 0 3 0 0 3 3 3 3 3 3 3 3 3 3 3 0 0 0 0 0 0 0 0 0
      0 0 0 0 3 3 3 3 3 3 3 3 3 3 3 3 3 3 3 3 3 3 3 3 3 3 3 3 3 3 3 3 3 3 3 3 3 3 3 3 3 3 3 3 3 3 3 3 3 3 3 3 3 3 3 3 3 3 3 3
      3 3 3 3 3 3 3 3 3 3 3 3 3 3 3 3 3 3 3 3 3 3 3 3 3 3 3 3 3 3 3 3 3 3 3 3 3 3 3 3 3 3 3 3 3 3 3 3 3 3 3 3 3 3 3 3 3 3 3 3
      3 3 3 3 3 3 3 3 3 3 3 3 3 3 3 3 3 3 3 3 3 3 3 3 3 3 3 3 3 3 3 3 3 3 3 3 3 3 3 3 3 3 3 3 3 3 3 3 3 3 3 3 3 3 3 3 3 3 3 3
      3 3 3 3 3 3 3 3 3 3 3 3 3 3 3 3 3 3 3 3 3 3 3 3 3 3 3 3 3 3 3 3 3 3 3 3 3 3 3 3 3 3 3 3 3 3 3 3 3 3 3 3 3 3 3 3 3 3 3 3
      3 3 3 3 3 3 3 3 3 3 3 3 3 3 3 3 3 3 3 3 3 3 3 3 3 3 3 3 3 3 3 3 3 3 3 3 3 3 3 3 3 3 3 3 3 3 3 3 3 3 3 3 3 3 3 3 3 3 3 3
      3 3 3 3 3 3 3 3 3 3 3 3 3 3 3 3 3 3 3 3 3 3 3 3 3 3 3 3 3 3 3 3 3 3 0 3 0 0 0 0 0 3 3 0 3 0 3 3 0 3 0 0 0 0 0 0 0 0 0 0
      0 0 3 3 3 3 3 3 3 3 3 3 3 3 3 3 3 3 3 3 3 3 3 3 3 3 3 3 3 3 3 3 3 3 3 3 3 3 3 3 3 3 3 3 3 3 3 3 3 3 3 3 3 3 3 3 3 3 3 3
      3 3 3 3 3 3 3 3 3 3 3 3 3 3 3 3 3 3 3 3 3 3 3 3 3 3 3 3 3 3 3 3 3 3 3 3 3 3 3 3 3 3 3 3 3 3 3 3 3 3 3 3 3 3 3 3 3 3 3 3
      3 3 3 3 3 3 3 3 3 3 3 3 3 3 3 3 3 3 3 3 3 3 3 3 3 3 3 3 3 3 3 3 3 3 3 3 3 3 3 3 3 3 3 3 3 3 3 3 3 3 3 3 3 3 3 3 3 3 3 3
      3 3 3 3 3 3 3 3 3 3 3 3 3 3 3 3 3 3 3 3 3 3 3 3 3 3 3 3 3 3 3 3 3 3 3 3 3 3 3 3 3 3 3 3 3 3 3 3 3 3 3 3 3 3 3 3 3 3 3 3
      3 3 3 3 3 3 3 3 3 3 3 3 3 3 3 3 3 3 3 3 3 3 3 3 3 3 3 3 3 3 3 3 3 3 3 3 3 3 3 3 3 3 3 3 3 3 3 3 3 3 3 3 3 3 3 3 3 3 3 3
      3 3 3 3 3 3 3 3 3 3 3 3 3 3 3 3 3 3 3 3 3 3 3 3 3 3 3 3 3 3 3 3 3 3 3 3 3 3 3 3 3 3 3 3 3 3 3 3 3 3 3 3 3 3 3 3 3 3 3 3
      3 3 3 3 3 3 3 3 3 3 3 3 3 3 3 3 3 3 3 3 3 3 3 3 3 3 3 3 3 3 3 3 3 3 3 3 3 3 3 3 3 3 3 3 3 3 3 3 3 3 3 3 3 3 3 3 3 3 3 3
      3 3 3 3 3 3 0 0 0 3 3 3 3 0 0 0 0 0 3 3 3 3 0 3 3 3 3 0 0 0 0 0 0 0 0 0 3 3 3 3 3 3 3 3 3 3 3 3 3 3 3 3 3 3 3 3 3 3 3 3
      3 3 3 3 3 3 3 3 3 3 3 3 3 3 3 3 3 3 3 3 3 3 3 3 3 3 3 3 3 3 3 3 3 3 3 3 3 3 3 3 3 3 3 3 3 3 3 3 3 3 3 3 3 3 3 3 3 3 3 3
      3 3 3 3 3 3 3 3 3 3 3 3 3 3 3 3 3 3 3 3 3 3 3 3 3 3 3 3 3 3 3 3 3 3 3 3 3 3 3 3 3 3 3 3 3 3 3 3 3 3 3 3 3 3 3 3 3 3 3 3
      3 3 3 3 3 3 3 3 3 3 3 3 3 3 3 3 3 3 3 3 3 3 3 3 3 3 3 3 3 3 3 3 3 3 3 3 3 3 3 3 3 3 3 3 3 3 3 3 3 3 3 3 3 3 3 3 3 3 3 3
      3 3 3 3 3 3 3 3 3 3 3 3 3 3 3 3 3 3 3 3 3 3 3 3 3 3 3 3 3 3 3 3 3 3 3 3 3 3 3 3 3 3 3 3 3 3 3 3 3 3 3 3 3 3 3 3 3 3 3 3
      3 3 3 3 3 3 3 3 3 3 3 3 3 3 3 3 3 3 3 3 3 3 3 3 3 3 3 3 3 3 3 3 3 3 3 3 3 3 3 3 3 3 3 3 3 3 3 3 3 3 3 3 3 3 3 3 3 3 3 3
      3 3 3 3 3 3 3 3 3 3 3 3 3 3 3 3 3 3 3 3 3 3 3 3 3 3 3 3 3 3 3 3 3 3 3 3 3 3 3 3 3 3 3 3 3 3 3 3 3 3 3 3 3 3 3 3 3 3 3 3
      3 3 3 3 3 3 3 3 3 3 3 3 3 3 3 3 3 3 3 3 3 3 3 3 3 3 3 3 3 3 3 3 3 3 3 3 0 3 3 3 3 0 0 3 3 3 3 0 3 3 3 3 0 0 0 0 0 0 3 3
      3 3 3 3 3 3 3 3 3 3 3 3 3 3 3 3 3 3 3 3 3 3 3 3 3 3 3 3 3 3 3 3 3 3 3 3 3 3 3 3 3 3 3 3 3 3 3 3 3 3 3 3 3 3 3 3 3 3 3 3
      3 3 3 3 3 3 3 3 3 3 3 3 3 3 3 3 3 3 3 3 3 3 3 3 3 3 3 3 3 3 3 3 3 3 3 3 3 3 3 3 3 3 3 3 3 3 3 3 3 3 3 3 3 3 3 3 3 3 3 3
      3 3 3 3 3 3 3 3 3 3 3 3 3 3 3 3 3 3 3 3 3 3 3 3 3 3 3 3 3 3 3 3 3 3 3 3 3 3 3 3 3 3 3 3 3 3 3 3 3 3 3 3 3 3 3 3 3 3 3 3
      3 3 3 3 3 3 3 3 3 3 3 3 3 3 3 3 3 3 3 3 3 3 3 3 3 3 3 3 3 3 3 3 3 3 3 3 3 3 3 3 3 3 3 3 3 3 3 3 3 3 3 3 3 3 3 3 3 3 3 3
      3 3 3 3 3 3 3 3 3 3 3 3 3 3 3 3 3 3 3 3 3 3 3 3 3 3 3 3 3 3 3 3 3 3 3 3 3 3 3 3 3 3 3 3 3 3 3 3 3 3 3 3 3 3 3 3 3 3 3 3
      3 3 3 3 3 3 3 3 3 3 3 3 3 3 3 3 3 3 3 3 3 3 3 3 3 3 3 3 3 3 3 3 3 3 3 3 3 3 3 3 3 3 3 3 3 3 3 3 3 3 3 3 3 3 3 3 3 3 3 3
      3 3 3 3 3 3 3 3 3 3 3 3 3 3 3 3 3 3 3 3 3 3 3 3 3 3 3 3 3 3 3 3 3 3 3 3 3 3 3 3 3 3 3 3 3 3 3 3 3 3 3 3 3 3 3 3 3 3 3 3
      3 0 3 0 3 0 0 0 3 0 3 0 0 3 0 3 0 0 0 0 0 0 0 3 3 3 3 3 3 3 3 3 3 3 3 3 3 3 3 3 3 3 3 3 3 3 3 3 3 3 3 3 3 3 3 3 3 3 3 3
      3 3 3 3 3 3 3 3 3 3 3 3 3 3 3 3 3 3 3 3 3 3 3 3 3 3 3 3 3 3 3 3 3 3 3 3 3 3 3 3 3 0 3 0 0 3 0 3 0 0 0 3 0 3 0 0 3 0 3 0
      0 0 0 0 0 0 3 3 3 3 3 3 3 3 3 3 3 3 3 3 3 3 3 3 3 3 3 3 3 3 3 3 3 3 3 3 3 3 3 3 3 3 3 3 3 3 3 3 3 3 3 0 3 0 0 3 0 3 0 0
      0 3 0 3 0 0 3 0 3 0 0 0 0 0 0 0 3 3 3 3 3 3 3 3 3 3 3 3 3 3 3 3 3 3 3 3 3 3 3 3 3 3 3 3 3 3 3 3 3 3 3 3 3 3 3 3 3 3 3 3
      3 3 3 3 3 3 3 3 3 3 3 3 3 0 0 0 0 0 0 0 0 0 0 0 0 0 0 0 0 3 3 3 3 3 3 3 3 3 3 3 3 3 3 3 3 3 3 3 3 3 3 3 3 3 3 3 3 3 3 3
      3 3 3 3 3 3 3 3 3 3 3 0 3 3 0 3 0 3 3 3 3 3 3 3 3 3 0 3 0 3 3 3 3 0 0 0 0 0 0 0 0 0 0 0 0 0 0 0 3 3 3 3 3 3 3 3 3 3 3 3
      3 3 3 3 3 3 3 3 3 3 3 3 3 3 3 3 3 3 3 3 3 3 3 3 3 3 3 3 3 3 3 3 0 0 3 0 3 0 0 3 3 3 3 3 3 3 3 3 0 3 0 0 0 0 0 0 0 0 0 0
      0 0 0 0 3 3 3 3 3 3 3 3 3 3 3 3 3 3 3 3 3 3 3 3 3 3 3 3 3 3 3 3 3 3 3 3 3 3 3 3 3 3 3 3 3 3 3 3 3 3 3 3 3 3 3 3 3 3 0 3
      0 3 3 3 3 0 0 0 0 0 3 0 3 0 0 0 0 0 0 0 0 0 0 0 0 0 3 3 3 3 3 3 3 3 3 3 3 3 3 3 3 3 3 3 3 3 3 3 3 3 3 3 3 3 3 3 3 3 3 3
      3 3 3 3 3 3 3 3 3 3 3 0 3 0 3 3 3 3 0 3 3 3 3 3 3 3 3 3 3 3 0 3 0 0 0 0 0 0 0 0 0 0 0 0 0 0 0 0 3 3 3 3 3 3 3 3 3 3 3 3
      3 3 3 3 3 3 3 3 3 3 3 3 3 3 3 3 3 3 3 3 3 3 3 3 3 3 3 3 3 3 3 3 3 3 3 3 3 3 3 3 3 0 3 0 3 3 3 3 0 0 0 0 0 3 0 3 0 0 0 0
      0 0 0 0 0 0 0 0 0 0 3 3 3 3 3 3 3 3 3 3 3 3 3 3 3 3 3 3 3 3 3 3 3 3 3 3 3 3 3 3 3 3 3 3 3 3 3 3 3 3 3 3 3 3 0 3 0 3 3 3
      3 0 3 3 3 3 3 3 3 3 0 3 0 0 3 0 0 0 0 0 0 0 0 0 0 0 0 0 0 0 0 0 3 3 3 3 3 3 3 3 3 3 3 3 3 3 3 3 3 3 3 3 3 3 3 3 3 3 3 3
      3 3 3 3 3 3 3 3 3 3 3 3 3 3 0 3 3 0 3 0 0 0 0 0 3 3 3 3 3 0 0 0 3 3 3 3 0 0 0 0 0 0 0 0 0 0 0 0 0 0 0 3 3 3 3 3 3 3 3 3
      3 3 3 3 3 3 3 3 3 3 3 3 3 3 3 3 3 3 3 3 3 3 3 3 3 3 3 3 3 3 3 3 3 3 3 3 3 3 3 3 3 3 0 3 0 0 3 0 3 0 0 0 0 0 0 0 0 0 0 0
      0 0 0 0 3 3 3 3 3 3 3 3 3 3 3 3 3 3 3 3 3 3 3 3 3 3 3 3 3 3 3 3 3 3 3 3 3 3 3 3 3 3 3 3 3 3 0 3 0 3 3 3 3 3 3 0 3 0 3 3
      3 3 3 0 3 0 0 0 0 0 0 0 0 0 0 0 0 0 0 0 0 0 0 3 3 3 3 3 3 3 3 3 3 3 3 3 3 3 3 3 3 3 3 3 3 3 3 3 3 3 3 3 3 3 3 3 3 3 3 3
      3 3 3 3 3 0 3 3 3 3 0 3 3 3 3 3 3 3 3 0 3 3 3 3 0 0 0 0 0 0 0 0 0 0 0 0 3 3 3 3 3 3 3 3 3 3 3 3 3 3 3 3 3 3 3 3 3 3 3 3
      3 3 3 3 3 3 3 3 3 3 3 3 3 3 3 3 3 0 0 3 0 3 0 0 3 3 3 3 3 0 3 0 0 3 0 3 0 0 0 0 0 0 0 0 0 0 0 0 0 3 3 3 3 3 3 3 3 3 3 3
      3 3 3 3 3 3 3 3 3 3 3 3 3 3 3 3 3 3 3 3 3 3 3 3 3 3 3 3 3 3 3 3 3 3 0 3 0 0 0 0 3 3 3 3 3 3 3 3 3 3 0 0 0 0 0 0 0 0 0 0
      0 0 0 0 0 3 3 3 3 3 3 3 3 3 3 3 3 3 3 3 3 3 3 3 3 3 3 3 3 3 3 3 3 3 3 3 3 3 3 3 3 3 3 3 3 3 3 3 3 0 0 0 0 3 3 3 3 3 3 3
      3 3 3 0 0 0 0 0 0 0 0 0 0 0 0 0 0 0 3 3 3 3 3 3 3 3 3 3 3 3 3 3 3 3 3 3 3 3 3 3 3 3 3 3 3 3 3 3 3 3 3 3 3 3 3 3 3 3 3 3
      3 0 0 0 0 0 3 3 0 3 0 3 3 0 3 0 0 0 0 0 0 0 0 0 0 0 0 0 0 0 0
 END PROCESSING GRIDDATA

 PROCESSING VERTICES
   SUCCESSFULLY READ 5889 (X,Y) COORDINATES
   MINIMUM X COORDINATE =     0.00000000000000    
   MAXIMUM X COORDINATE =     10000.0000000000    
   MINIMUM Y COORDINATE =     0.00000000000000    
   MAXIMUM Y COORDINATE =     10000.0000000000    
 END PROCESSING VERTICES

 PROCESSING CELL2D
   SUCCESSFULLY READ 5011 CELL2D INFORMATION ENTRIES
   MINIMUM X CELL CENTER =     125.000000000000    
   MAXIMUM X CELL CENTER =     9937.50000000000    
   MINIMUM Y CELL CENTER =     15.6250000000000    
   MAXIMUM Y CELL CENTER =     9984.37500000000    
   MAXIMUM NUMBER OF CELL2D VERTICES IS 8 FOR CELL 740
 END PROCESSING VERTICES

 THE SPECIFIED IDOMAIN RESULTS IN A REDUCED NUMBER OF CELLS.
 NUMBER OF USER NODES:   15033
 NUMBER OF NODES IN SOLUTION:   12921



 NPF -- NODE PROPERTY FLOW PACKAGE, VERSION 1, 3/30/2015 INPUT READ FROM UNIT 1006


 # File generated by Flopy version 3.3.3 on 02/11/2021 at 12:42:16.
 PROCESSING NPF OPTIONS
    VALUES SPECIFIED FOR K33 ARE ANISOTROPY RATIOS AND WILL BE MULTIPLIED BY K BEFORE BEING USED IN CALCULATIONS.
 END OF NPF OPTIONS

 WEL   -- WEL PACKAGE, VERSION 8, 2/22/2014 INPUT READ FROM UNIT 1014
 # File generated by Flopy version 3.3.3 on 02/11/2021 at 12:42:17.

 PROCESSING WEL OPTIONS
    AUXILIARY WEL VARIABLE: IFACE           
    WEL BOUNDARIES HAVE NAMES IN LAST COLUMN.
    TIME-SERIES DATA WILL BE READ FROM FILE: wel.ts
 # File generated by Flopy version 3.3.3 on 02/11/2021 at 12:42:17.

 OPENED model.wel.obs
 FILE TYPE:OBS   UNIT 1020   STATUS:OLD                 
 FORMAT:FORMATTED              ACCESS:SEQUENTIAL          
 ACTION:READ                

 END OF WEL OPTIONS

 PROCESSING WEL DIMENSIONS
    MAXBOUND =      13
 END OF WEL DIMENSIONS

 DRN   -- DRN PACKAGE, VERSION 8, 2/22/2014 INPUT READ FROM UNIT 1013
 # File generated by Flopy version 3.3.3 on 02/11/2021 at 12:42:17.

 PROCESSING DRN OPTIONS
    DRN BOUNDARIES HAVE NAMES IN LAST COLUMN.

 OPENED model2.drn.obs
 FILE TYPE:OBS   UNIT 1021   STATUS:OLD                 
 FORMAT:FORMATTED              ACCESS:SEQUENTIAL          
 ACTION:READ                

 END OF DRN OPTIONS

 PROCESSING DRN DIMENSIONS
    MAXBOUND =    4307
 END OF DRN DIMENSIONS

 RIV   -- RIV PACKAGE, VERSION 8, 2/22/2014 INPUT READ FROM UNIT 1012
 # File generated by Flopy version 3.3.3 on 02/11/2021 at 12:42:17.

 PROCESSING RIV OPTIONS
    RIV BOUNDARIES HAVE NAMES IN LAST COLUMN.

 OPENED model.riv.obs
 FILE TYPE:OBS   UNIT 1022   STATUS:OLD                 
 FORMAT:FORMATTED              ACCESS:SEQUENTIAL          
 ACTION:READ                

 END OF RIV OPTIONS

 PROCESSING RIV DIMENSIONS
    MAXBOUND =     553
 END OF RIV DIMENSIONS

 GHB   -- GHB PACKAGE, VERSION 8, 2/22/2014 INPUT READ FROM UNIT 1011
 # File generated by Flopy version 3.3.3 on 02/11/2021 at 12:42:17.

 PROCESSING GHB OPTIONS
    GHB BOUNDARIES HAVE NAMES IN LAST COLUMN.
    TIME-SERIES DATA WILL BE READ FROM FILE: ghb.ts
 # File generated by Flopy version 3.3.3 on 02/11/2021 at 12:42:17.

 OPENED model.ghb.obs
 FILE TYPE:OBS   UNIT 1024   STATUS:OLD                 
 FORMAT:FORMATTED              ACCESS:SEQUENTIAL          
 ACTION:READ                

 END OF GHB OPTIONS

 PROCESSING GHB DIMENSIONS
    MAXBOUND =      80
 END OF GHB DIMENSIONS

 RCH   -- RCH PACKAGE, VERSION 8, 2/22/2014 INPUT READ FROM UNIT 1008
 # File generated by Flopy version 3.3.3 on 02/11/2021 at 12:42:16.

 PROCESSING RCH OPTIONS
    AUXILIARY RCH VARIABLE: MULTIPLIER      
    AUXILIARY MULTIPLIER NAME: MULTIPLIER      
    RCH BOUNDARIES HAVE NAMES IN LAST COLUMN.
    TIME-SERIES DATA WILL BE READ FROM FILE: rch.ts
 # File generated by Flopy version 3.3.3 on 02/11/2021 at 12:42:17.

 OPENED model.rch.obs
 FILE TYPE:OBS   UNIT 1026   STATUS:OLD                 
 FORMAT:FORMATTED              ACCESS:SEQUENTIAL          
 ACTION:READ                

 END OF RCH OPTIONS

 PROCESSING RCH DIMENSIONS
    MAXBOUND =    4217
 END OF RCH DIMENSIONS

 EVT   -- EVT PACKAGE, VERSION 8, 2/22/2014 INPUT READ FROM UNIT 1009
 # File generated by Flopy version 3.3.3 on 02/11/2021 at 12:42:16.

 PROCESSING EVT OPTIONS
    AUXILIARY EVT VARIABLE: MULTIPLIER      
    AUXILIARY MULTIPLIER NAME: MULTIPLIER      
    EVT BOUNDARIES HAVE NAMES IN LAST COLUMN.
    TIME-SERIES DATA WILL BE READ FROM FILE: evp.ts
 # File generated by Flopy version 3.3.3 on 02/11/2021 at 12:42:17.

 OPENED model.evt.obs
 FILE TYPE:OBS   UNIT 1028   STATUS:OLD                 
 FORMAT:FORMATTED              ACCESS:SEQUENTIAL          
 ACTION:READ                

 END OF EVT OPTIONS

 PROCESSING EVT DIMENSIONS
    MAXBOUND =    4217
    NSEG = 1
 END OF EVT DIMENSIONS

 CHD   -- CHD PACKAGE, VERSION 8, 2/22/2014 INPUT READ FROM UNIT 1010
 # File generated by Flopy version 3.3.3 on 02/11/2021 at 12:42:17.

 PROCESSING CHD OPTIONS
    CHD BOUNDARIES HAVE NAMES IN LAST COLUMN.

 OPENED model.chd.obs
 FILE TYPE:OBS   UNIT 1029   STATUS:OLD                 
 FORMAT:FORMATTED              ACCESS:SEQUENTIAL          
 ACTION:READ                

 END OF CHD OPTIONS

 PROCESSING CHD DIMENSIONS
    MAXBOUND =     351
 END OF CHD DIMENSIONS

 IC -- INITIAL CONDITIONS PACKAGE, VERSION 8, 3/28/2015 INPUT READ FROM UNIT 1007
 # File generated by Flopy version 3.3.3 on 02/11/2021 at 12:42:16.
 PROCESSING GRIDDATA
 END PROCESSING GRIDDATA
 PROCESSING GRIDDATA

 OPENED model.npf_icelltype_layer1.txt
 FILE TYPE:OPEN/CLOSE   UNIT 1030   STATUS:OLD                 
 FORMAT:FORMATTED              ACCESS:SEQUENTIAL          
 ACTION:READ                


 OPENED model.npf_icelltype_layer2.txt
 FILE TYPE:OPEN/CLOSE   UNIT 1031   STATUS:OLD                 
 FORMAT:FORMATTED              ACCESS:SEQUENTIAL          
 ACTION:READ                


 OPENED model.npf_icelltype_layer3.txt
 FILE TYPE:OPEN/CLOSE   UNIT 1032   STATUS:OLD                 
 FORMAT:FORMATTED              ACCESS:SEQUENTIAL          
 ACTION:READ                


 OPENED model.npf_k_layer1.txt
 FILE TYPE:OPEN/CLOSE   UNIT 1033   STATUS:OLD                 
 FORMAT:FORMATTED              ACCESS:SEQUENTIAL          
 ACTION:READ                


 OPENED model.npf_k_layer2.txt
 FILE TYPE:OPEN/CLOSE   UNIT 1034   STATUS:OLD                 
 FORMAT:FORMATTED              ACCESS:SEQUENTIAL          
 ACTION:READ                


 OPENED model.npf_k_layer3.txt
 FILE TYPE:OPEN/CLOSE   UNIT 1035   STATUS:OLD                 
 FORMAT:FORMATTED              ACCESS:SEQUENTIAL          
 ACTION:READ                


 OPENED model.npf_k33_layer1.txt
 FILE TYPE:OPEN/CLOSE   UNIT 1036   STATUS:OLD                 
 FORMAT:FORMATTED              ACCESS:SEQUENTIAL          
 ACTION:READ                


 OPENED model.npf_k33_layer2.txt
 FILE TYPE:OPEN/CLOSE   UNIT 1037   STATUS:OLD                 
 FORMAT:FORMATTED              ACCESS:SEQUENTIAL          
 ACTION:READ                


 OPENED model.npf_k33_layer3.txt
 FILE TYPE:OPEN/CLOSE   UNIT 1038   STATUS:OLD                 
 FORMAT:FORMATTED              ACCESS:SEQUENTIAL          
 ACTION:READ                

 K22 not provided.  Assuming K22 = K.
 END PROCESSING GRIDDATA

 STO -- STORAGE PACKAGE, VERSION 1, 5/19/2014 INPUT READ FROM UNIT 1015


 # File generated by Flopy version 3.3.3 on 02/11/2021 at 12:42:17.
 PROCESSING STORAGE OPTIONS
 END OF STORAGE OPTIONS
 PROCESSING GRIDDATA

 OPENED model.sto_iconvert.txt
 FILE TYPE:OPEN/CLOSE   UNIT 1039   STATUS:OLD                 
 FORMAT:FORMATTED              ACCESS:SEQUENTIAL          
 ACTION:READ                


 OPENED model.sto_ss_layer1.txt
 FILE TYPE:OPEN/CLOSE   UNIT 1040   STATUS:OLD                 
 FORMAT:FORMATTED              ACCESS:SEQUENTIAL          
 ACTION:READ                


 OPENED model.sto_ss_layer2.txt
 FILE TYPE:OPEN/CLOSE   UNIT 1041   STATUS:OLD                 
 FORMAT:FORMATTED              ACCESS:SEQUENTIAL          
 ACTION:READ                


 OPENED model.sto_ss_layer3.txt
 FILE TYPE:OPEN/CLOSE   UNIT 1042   STATUS:OLD                 
 FORMAT:FORMATTED              ACCESS:SEQUENTIAL          
 ACTION:READ                


 OPENED model.sto_sy_layer1.txt
 FILE TYPE:OPEN/CLOSE   UNIT 1043   STATUS:OLD                 
 FORMAT:FORMATTED              ACCESS:SEQUENTIAL          
 ACTION:READ                


 OPENED model.sto_sy_layer2.txt
 FILE TYPE:OPEN/CLOSE   UNIT 1044   STATUS:OLD                 
 FORMAT:FORMATTED              ACCESS:SEQUENTIAL          
 ACTION:READ                


 OPENED model.sto_sy_layer3.txt
 FILE TYPE:OPEN/CLOSE   UNIT 1045   STATUS:OLD                 
 FORMAT:FORMATTED              ACCESS:SEQUENTIAL          
 ACTION:READ                

 END PROCESSING GRIDDATA

The observation utility is active for "MODEL"
 # File generated by Flopy version 3.3.3 on 02/11/2021 at 12:42:17.

Processing observation options:

Text output number of digits of precision set to: 10

    BINARY GRID INFORMATION WILL BE WRITTEN TO:
      UNIT NUMBER: 1047
      FILE NAME: C:\_data\work\gmdsi\tutorial\tutorial-olproc\mf6model\model.disv.grb

 OPENED C:\_data\work\gmdsi\tutorial\tutorial-olproc\mf6model\model.disv.grb
 FILE TYPE:DATA(BINARY)   UNIT 1047   STATUS:REPLACE             
 FORMAT:UNFORMATTED            ACCESS:STREAM              
 ACTION:READWRITE           

      THE LAST TIME STEP WILL BE PRINTED
      THE LAST TIME STEP WILL BE PRINTED
 # File generated by Flopy version 3.3.3 on 02/11/2021 at 12:42:17.

 PROCESSING OC OPTIONS

    BUDGET INFORMATION WILL BE WRITTEN TO:
      UNIT NUMBER: 1048
      FILE NAME: model.cbb

 OPENED model.cbb
 FILE TYPE:DATA(BINARY)   UNIT 1048   STATUS:REPLACE             
 FORMAT:UNFORMATTED            ACCESS:STREAM              
 ACTION:READWRITE           

    HEAD INFORMATION WILL BE WRITTEN TO:
      UNIT NUMBER: 1049
      FILE NAME: model.hds

 OPENED model.hds
 FILE TYPE:DATA(BINARY)   UNIT 1049   STATUS:REPLACE             
 FORMAT:UNFORMATTED            ACCESS:STREAM              
 ACTION:READWRITE           

 END OF OC OPTIONS

The observation utility is active for "WEL_0"
 # File generated by Flopy version 3.3.3 on 02/11/2021 at 12:42:17.

Processing observation options:

Text output number of digits of precision set to:  9


The observation utility is active for "DRN2"
 # File generated by Flopy version 3.3.3 on 02/11/2021 at 12:42:17.

Processing observation options:

Text output number of digits of precision set to:  9


The observation utility is active for "RIV_0"
 # File generated by Flopy version 3.3.3 on 02/11/2021 at 12:42:17.

Processing observation options:

Text output number of digits of precision set to:  9


The observation utility is active for "GHB_0"
 # File generated by Flopy version 3.3.3 on 02/11/2021 at 12:42:17.

Processing observation options:

Text output number of digits of precision set to:  9


The observation utility is active for "RCH"
 # File generated by Flopy version 3.3.3 on 02/11/2021 at 12:42:17.

Processing observation options:

Text output number of digits of precision set to:  9


The observation utility is active for "EVT"
 # File generated by Flopy version 3.3.3 on 02/11/2021 at 12:42:17.

Processing observation options:

Text output number of digits of precision set to:  9


The observation utility is active for "CHD_0"
 # File generated by Flopy version 3.3.3 on 02/11/2021 at 12:42:17.

Processing observation options:

Text output number of digits of precision set to:  9


start timestep kper="1" kstp="1" mode="normal"


 BEGIN READING OUTPUT CONTROL FOR STRESS PERIOD 1
      THE LAST TIME STEP WILL BE SAVED
      THE LAST TIME STEP WILL BE SAVED
      THE LAST TIME STEP WILL BE PRINTED
      THE LAST TIME STEP WILL BE PRINTED

 END READING OUTPUT CONTROL FOR STRESS PERIOD 1


 PROCESSING STORAGE PERIOD DATA
 END PROCESSING STORAGE PERIOD DATA


 STRESS PERIOD 1 IS STEADY-STATE


 OPENED model.wel_stress_period_data_1.txt
 FILE TYPE:OPEN/CLOSE   UNIT 1058   STATUS:OLD                 
 FORMAT:FORMATTED              ACCESS:SEQUENTIAL          
 ACTION:READ                


 OPENED model.riv_stress_period_data_1.txt
 FILE TYPE:OPEN/CLOSE   UNIT 1059   STATUS:OLD                 
 FORMAT:FORMATTED              ACCESS:SEQUENTIAL          
 ACTION:READ                


 OPENED model.ghb_stress_period_data_1.txt
 FILE TYPE:OPEN/CLOSE   UNIT 1060   STATUS:OLD                 
 FORMAT:FORMATTED              ACCESS:SEQUENTIAL          
 ACTION:READ                

1
  HEAD IN LAYER   1 AT END OF TIME STEP   1 IN STRESS PERIOD    1
  ---------------------------------------------------------------------------

                1               2               3               4               5               6               7               8               9              10
               11              12              13              14              15              16              17              18              19              20
               21              22              23              24              25              26              27              28              29              30
               31              32              33              34              35              36              37              38              39              40
               41              42              43              44              45              46              47              48              49              50
               51              52              53              54              55              56              57              58              59              60
               61              62              63              64              65              66              67              68              69              70
               71              72              73              74              75              76              77              78              79              80
               81              82              83              84              85              86              87              88              89              90
               91              92              93              94              95              96              97              98              99             100
              101             102             103             104             105             106             107             108             109             110
              111             112             113             114             115             116             117             118             119             120
              121             122             123             124             125             126             127             128             129             130
              131             132             133             134             135             136             137             138             139             140
              141             142             143             144             145             146             147             148             149             150
              151             152             153             154             155             156             157             158             159             160
              161             162             163             164             165             166             167             168             169             170
              171             172             173             174             175             176             177             178             179             180
              181             182             183             184             185             186             187             188             189             190
              191             192             193             194             195             196             197             198             199             200
              201             202             203             204             205             206             207             208             209             210
              211             212             213             214             215             216             217             218             219             220
              221             222             223             224             225             226             227             228             229             230
              231             232             233             234             235             236             237             238             239             240
              241             242             243             244             245             246             247             248             249             250
              251             252             253             254             255             256             257             258             259             260
              261             262             263             264             265             266             267             268             269             270
              271             272             273             274             275             276             277             278             279             280
              281             282             283             284             285             286             287             288             289             290
              291             292             293             294             295             296             297             298             299             300
              301             302             303             304             305             306             307             308             309             310
              311             312             313             314             315             316             317             318             319             320
              321             322             323             324             325             326             327             328             329             330
              331             332             333             334             335             336             337             338             339             340
              341             342             343             344             345             346             347             348             349             350
              351             352             353             354             355             356             357             358             359             360
              361             362             363             364             365             366             367             368             369             370
              371             372             373             374             375             376             377             378             379             380
              381             382             383             384             385             386             387             388             389             390
              391             392             393             394             395             396             397             398             399             400
              401             402             403             404             405             406             407             408             409             410
              411             412             413             414             415             416             417             418             419             420
              421             422             423             424             425             426             427             428             429             430
              431             432             433             434             435             436             437             438             439             440
              441             442             443             444             445             446             447             448             449             450
              451             452             453             454             455             456             457             458             459             460
              461             462             463             464             465             466             467             468             469             470
              471             472             473             474             475             476             477             478             479             480
              481             482             483             484             485             486             487             488             489             490
              491             492             493             494             495             496             497             498             499             500
              501             502             503             504             505             506             507             508             509             510
              511             512             513             514             515             516             517             518             519             520
              521             522             523             524             525             526             527             528             529             530
              531             532             533             534             535             536             537             538             539             540
              541             542             543             544             545             546             547             548             549             550
              551             552             553             554             555             556             557             558             559             560
              561             562             563             564             565             566             567             568             569             570
              571             572             573             574             575             576             577             578             579             580
              581             582             583             584             585             586             587             588             589             590
              591             592             593             594             595             596             597             598             599             600
              601             602             603             604             605             606             607             608             609             610
              611             612             613             614             615             616             617             618             619             620
              621             622             623             624             625             626             627             628             629             630
              631             632             633             634             635             636             637             638             639             640
              641             642             643             644             645             646             647             648             649             650
              651             652             653             654             655             656             657             658             659             660
              661             662             663             664             665             666             667             668             669             670
              671             672             673             674             675             676             677             678             679             680
              681             682             683             684             685             686             687             688             689             690
              691             692             693             694             695             696             697             698             699             700
              701             702             703             704             705             706             707             708             709             710
              711             712             713             714             715             716             717             718             719             720
              721             722             723             724             725             726             727             728             729             730
              731             732             733             734             735             736             737             738             739             740
              741             742             743             744             745             746             747             748             749             750
              751             752             753             754             755             756             757             758             759             760
              761             762             763             764             765             766             767             768             769             770
              771             772             773             774             775             776             777             778             779             780
              781             782             783             784             785             786             787             788             789             790
              791             792             793             794             795             796             797             798             799             800
              801             802             803             804             805             806             807             808             809             810
              811             812             813             814             815             816             817             818             819             820
              821             822             823             824             825             826             827             828             829             830
              831             832             833             834             835             836             837             838             839             840
              841             842             843             844             845             846             847             848             849             850
              851             852             853             854             855             856             857             858             859             860
              861             862             863             864             865             866             867             868             869             870
              871             872             873             874             875             876             877             878             879             880
              881             882             883             884             885             886             887             888             889             890
              891             892             893             894             895             896             897             898             899             900
              901             902             903             904             905             906             907             908             909             910
              911             912             913             914             915             916             917             918             919             920
              921             922             923             924             925             926             927             928             929             930
              931             932             933             934             935             936             937             938             939             940
              941             942             943             944             945             946             947             948             949             950
              951             952             953             954             955             956             957             958             959             960
              961             962             963             964             965             966             967             968             969             970
              971             972             973             974             975             976             977             978             979             980
              981             982             983             984             985             986             987             988             989             990
              991             992             993             994             995             996             997             998             999            1000
             1001            1002            1003            1004            1005            1006            1007            1008            1009            1010
             1011            1012            1013            1014            1015            1016            1017            1018            1019            1020
             1021            1022            1023            1024            1025            1026            1027            1028            1029            1030
             1031            1032            1033            1034            1035            1036            1037            1038            1039            1040
             1041            1042            1043            1044            1045            1046            1047            1048            1049            1050
             1051            1052            1053            1054            1055            1056            1057            1058            1059            1060
             1061            1062            1063            1064            1065            1066            1067            1068            1069            1070
             1071            1072            1073            1074            1075            1076            1077            1078            1079            1080
             1081            1082            1083            1084            1085            1086            1087            1088            1089            1090
             1091            1092            1093            1094            1095            1096            1097            1098            1099            1100
             1101            1102            1103            1104            1105            1106            1107            1108            1109            1110
             1111            1112            1113            1114            1115            1116            1117            1118            1119            1120
             1121            1122            1123            1124            1125            1126            1127            1128            1129            1130
             1131            1132            1133            1134            1135            1136            1137            1138            1139            1140
             1141            1142            1143            1144            1145            1146            1147            1148            1149            1150
             1151            1152            1153            1154            1155            1156            1157            1158            1159            1160
             1161            1162            1163            1164            1165            1166            1167            1168            1169            1170
             1171            1172            1173            1174            1175            1176            1177            1178            1179            1180
             1181            1182            1183            1184            1185            1186            1187            1188            1189            1190
             1191            1192            1193            1194            1195            1196            1197            1198            1199            1200
             1201            1202            1203            1204            1205            1206            1207            1208            1209            1210
             1211            1212            1213            1214            1215            1216            1217            1218            1219            1220
             1221            1222            1223            1224            1225            1226            1227            1228            1229            1230
             1231            1232            1233            1234            1235            1236            1237            1238            1239            1240
             1241            1242            1243            1244            1245            1246            1247            1248            1249            1250
             1251            1252            1253            1254            1255            1256            1257            1258            1259            1260
             1261            1262            1263            1264            1265            1266            1267            1268            1269            1270
             1271            1272            1273            1274            1275            1276            1277            1278            1279            1280
             1281            1282            1283            1284            1285            1286            1287            1288            1289            1290
             1291            1292            1293            1294            1295            1296            1297            1298            1299            1300
             1301            1302            1303            1304            1305            1306            1307            1308            1309            1310
             1311            1312            1313            1314            1315            1316            1317            1318            1319            1320
             1321            1322            1323            1324            1325            1326            1327            1328            1329            1330
             1331            1332            1333            1334            1335            1336            1337            1338            1339            1340
             1341            1342            1343            1344            1345            1346            1347            1348            1349            1350
             1351            1352            1353            1354            1355            1356            1357            1358            1359            1360
             1361            1362            1363            1364            1365            1366            1367            1368            1369            1370
             1371            1372            1373            1374            1375            1376            1377            1378            1379            1380
             1381            1382            1383            1384            1385            1386            1387            1388            1389            1390
             1391            1392            1393            1394            1395            1396            1397            1398            1399            1400
             1401            1402            1403            1404            1405            1406            1407            1408            1409            1410
             1411            1412            1413            1414            1415            1416            1417            1418            1419            1420
             1421            1422            1423            1424            1425            1426            1427            1428            1429            1430
             1431            1432            1433            1434            1435            1436            1437            1438            1439            1440
             1441            1442            1443            1444            1445            1446            1447            1448            1449            1450
             1451            1452            1453            1454            1455            1456            1457            1458            1459            1460
             1461            1462            1463            1464            1465            1466            1467            1468            1469            1470
             1471            1472            1473            1474            1475            1476            1477            1478            1479            1480
             1481            1482            1483            1484            1485            1486            1487            1488            1489            1490
             1491            1492            1493            1494            1495            1496            1497            1498            1499            1500
             1501            1502            1503            1504            1505            1506            1507            1508            1509            1510
             1511            1512            1513            1514            1515            1516            1517            1518            1519            1520
             1521            1522            1523            1524            1525            1526            1527            1528            1529            1530
             1531            1532            1533            1534            1535            1536            1537            1538            1539            1540
             1541            1542            1543            1544            1545            1546            1547            1548            1549            1550
             1551            1552            1553            1554            1555            1556            1557            1558            1559            1560
             1561            1562            1563            1564            1565            1566            1567            1568            1569            1570
             1571            1572            1573            1574            1575            1576            1577            1578            1579            1580
             1581            1582            1583            1584            1585            1586            1587            1588            1589            1590
             1591            1592            1593            1594            1595            1596            1597            1598            1599            1600
             1601            1602            1603            1604            1605            1606            1607            1608            1609            1610
             1611            1612            1613            1614            1615            1616            1617            1618            1619            1620
             1621            1622            1623            1624            1625            1626            1627            1628            1629            1630
             1631            1632            1633            1634            1635            1636            1637            1638            1639            1640
             1641            1642            1643            1644            1645            1646            1647            1648            1649            1650
             1651            1652            1653            1654            1655            1656            1657            1658            1659            1660
             1661            1662            1663            1664            1665            1666            1667            1668            1669            1670
             1671            1672            1673            1674            1675            1676            1677            1678            1679            1680
             1681            1682            1683            1684            1685            1686            1687            1688            1689            1690
             1691            1692            1693            1694            1695            1696            1697            1698            1699            1700
             1701            1702            1703            1704            1705            1706            1707            1708            1709            1710
             1711            1712            1713            1714            1715            1716            1717            1718            1719            1720
             1721            1722            1723            1724            1725            1726            1727            1728            1729            1730
             1731            1732            1733            1734            1735            1736            1737            1738            1739            1740
             1741            1742            1743            1744            1745            1746            1747            1748            1749            1750
             1751            1752            1753            1754            1755            1756            1757            1758            1759            1760
             1761            1762            1763            1764            1765            1766            1767            1768            1769            1770
             1771            1772            1773            1774            1775            1776            1777            1778            1779            1780
             1781            1782            1783            1784            1785            1786            1787            1788            1789            1790
             1791            1792            1793            1794            1795            1796            1797            1798            1799            1800
             1801            1802            1803            1804            1805            1806            1807            1808            1809            1810
             1811            1812            1813            1814            1815            1816            1817            1818            1819            1820
             1821            1822            1823            1824            1825            1826            1827            1828            1829            1830
             1831            1832            1833            1834            1835            1836            1837            1838            1839            1840
             1841            1842            1843            1844            1845            1846            1847            1848            1849            1850
             1851            1852            1853            1854            1855            1856            1857            1858            1859            1860
             1861            1862            1863            1864            1865            1866            1867            1868            1869            1870
             1871            1872            1873            1874            1875            1876            1877            1878            1879            1880
             1881            1882            1883            1884            1885            1886            1887            1888            1889            1890
             1891            1892            1893            1894            1895            1896            1897            1898            1899            1900
             1901            1902            1903            1904            1905            1906            1907            1908            1909            1910
             1911            1912            1913            1914            1915            1916            1917            1918            1919            1920
             1921            1922            1923            1924            1925            1926            1927            1928            1929            1930
[...]
          92.1027         91.8121         91.5184         91.2702         91.0604         90.8547         90.6151         90.3156         89.9344         89.4475    
          88.9275         88.5317         88.2531         88.0100         87.7702         87.5052         87.1964         86.8492         86.4853         86.0693    
          85.4970         84.9430         84.6157         84.3921         84.2141         84.0731         83.9618         83.8765         83.8096         83.7503    
          83.6963         83.6508         83.6318         83.6723         83.6545         83.6178         83.6127         83.6262         83.6219         83.6077    
          83.6044         83.6126        1.000000E+30    1.000000E+30     83.6178        1.000000E+30     83.6211        1.000000E+30    1.000000E+30     83.6379    
          83.6306         83.6278         83.6354         83.6332         83.6486         83.6414         83.6371         83.6480        1.000000E+30     83.6242    
         1.000000E+30    1.000000E+30    1.000000E+30    1.000000E+30    1.000000E+30    1.000000E+30    1.000000E+30    1.000000E+30    1.000000E+30    1.000000E+30
         1.000000E+30    1.000000E+30    1.000000E+30    1.000000E+30     92.5159         92.3283         92.1115         91.8634         91.5923         91.3538    
          91.1605         90.9690         90.7300         90.4041         89.9812         89.4851         88.9671         88.5641         88.2826         88.0282    
          87.7463         87.4376         87.1246         86.7831         86.3989         85.9526         85.4387         84.9794         84.6747         84.4454    
          84.2557         84.1187         84.0206         83.9432         83.8745         83.8100         83.7537         83.7035         83.6803         83.6713    
          83.6930         83.6844         83.7312         83.7091         83.6981         83.6938         83.7047         83.7004         83.7235         83.7134    
          83.7092         83.7202         83.7144         83.6612         83.6577         83.6674         83.6637         83.6547        1.000000E+30     83.6589    
         1.000000E+30     83.6750         83.6713         83.6807         83.6758        1.000000E+30    1.000000E+30    1.000000E+30    1.000000E+30    1.000000E+30
          83.6896        1.000000E+30     83.6947        1.000000E+30    1.000000E+30    1.000000E+30    1.000000E+30    1.000000E+30    1.000000E+30    1.000000E+30
         1.000000E+30    1.000000E+30    1.000000E+30    1.000000E+30    1.000000E+30    1.000000E+30     92.4798         92.3290         92.1472         91.9269    
          91.6741         91.4488         91.2619         91.0716         90.8422         90.4947         89.9983         89.4689         88.9951         88.6001    
          88.2903         88.0039         87.6735         87.3530         87.0626         86.7217         86.3388         85.9100         85.4509         85.0473    
          84.7355         84.4886         84.2982         84.1635         84.0820         84.0160         83.9460         83.8810         83.8219         83.7971    
          83.8554         83.8328         83.7675         83.7556         83.7849         83.7739         83.7416         83.7362         83.7503         83.7450    
          83.7312        1.000000E+30     83.7377        1.000000E+30     83.7613         83.7561         83.7692         83.7625        1.000000E+30     83.8067    
          83.7924         83.7866         83.8011         83.7955         83.8241         83.8122         83.8069         83.8203         83.8133         83.7810    
         1.000000E+30     83.7879        1.000000E+30    1.000000E+30    1.000000E+30    1.000000E+30    1.000000E+30    1.000000E+30    1.000000E+30    1.000000E+30
         1.000000E+30    1.000000E+30    1.000000E+30    1.000000E+30    1.000000E+30    1.000000E+30    1.000000E+30    1.000000E+30     92.4799         92.3553    
          92.1951         92.0020         91.7752         91.5497         91.3619         91.1633         90.9342         90.5657         90.0110         89.4590    
          89.0149         88.6314         88.2926         87.9750         87.6302         87.2947         86.9896         86.6673         86.3037         85.8968    
          85.4784         85.1154         84.8199         84.5573         84.3575         84.2184         84.1324         84.0757         84.0126         83.9535    
          83.9003         83.8707         83.8586         83.8887         83.8779         83.9340         83.9103         83.8968         83.8912         83.9054    
          83.9001         83.9273         83.9161         83.9112         83.9241         83.9175         83.8440         83.8385         83.8533         83.8479    
          83.8330        1.000000E+30     83.8404        1.000000E+30     83.8648         83.8594         83.8733         83.8661        1.000000E+30    1.000000E+30
         1.000000E+30    1.000000E+30    1.000000E+30     83.8857        1.000000E+30     83.8927        1.000000E+30    1.000000E+30    1.000000E+30    1.000000E+30
         1.000000E+30    1.000000E+30    1.000000E+30    1.000000E+30    1.000000E+30    1.000000E+30    1.000000E+30    1.000000E+30    1.000000E+30    1.000000E+30
          92.5286         92.4180         92.2750         92.1105         91.9209         91.6926         91.4610         91.2433         90.9962         90.5841    
          90.0153         89.4854         89.0505         88.6601         88.3026         87.9516         87.5917         87.2552         86.9434         86.6245    
          86.2688         85.8771         85.4956         85.1836         84.9161         84.6662         84.4538         84.2999         84.1941         84.1275    
          84.0723         84.0183         83.9966         84.0499         84.0299         83.9710         83.9604         83.9871         83.9784         83.9471    
          83.9416         83.9561         83.9509         83.9364        1.000000E+30     83.9435        1.000000E+30     83.9672         83.9622         83.9754    
          83.9688        1.000000E+30     84.0070         83.9974         84.0238         84.0134         84.0087         84.0223         84.0189         83.9883    
         1.000000E+30     83.9955        1.000000E+30    1.000000E+30     84.0020        1.000000E+30    1.000000E+30    1.000000E+30    1.000000E+30    1.000000E+30
         1.000000E+30    1.000000E+30    1.000000E+30    1.000000E+30    1.000000E+30    1.000000E+30    1.000000E+30    1.000000E+30    1.000000E+30    1.000000E+30
         1.000000E+30    1.000000E+30     92.6132         92.5153         92.3844         92.2438         92.0821         91.8711         91.6120         91.3606    
          91.0595         90.5995         90.0360         89.5336         89.1167         88.7087         88.3223         87.9408         87.5635         87.2158    
          86.8992         86.6004         86.2640         85.8807         85.5454         85.2672         85.0093         84.7681         84.5588         84.3960    
          84.2779         84.2011         84.1461         84.0927         84.0701         84.1296         84.1069         84.0982         84.1265         84.1195    
          84.0467         84.0341         84.0263         84.0460        1.000000E+30     84.0657         84.0580        1.000000E+30     84.0653        1.000000E+30
         1.000000E+30    1.000000E+30    1.000000E+30    1.000000E+30     84.0858         84.0806         84.0963         84.0936         84.0728        1.000000E+30
         1.000000E+30    1.000000E+30     84.1084         84.1042         84.1179         84.1108        1.000000E+30    1.000000E+30    1.000000E+30    1.000000E+30
         1.000000E+30    1.000000E+30    1.000000E+30    1.000000E+30    1.000000E+30    1.000000E+30    1.000000E+30    1.000000E+30    1.000000E+30    1.000000E+30
         1.000000E+30     92.7134         92.6239         92.5038         92.3707         92.2226         92.0372         91.7864         91.5025         91.1413    
          90.6516         90.1075         89.6032         89.1666         88.7601         88.3553         87.9511         87.5571         87.1875         86.8634    
          86.5898         86.2819         85.9074         85.6008         85.3443         85.0837         84.8479         84.6524         84.4969         84.3721    
          84.2845         84.2277         84.1775         84.1525         84.1435         84.1724         84.1625         84.1586         84.1727         84.1692    
          84.2148         84.1967         84.1869         84.1841         84.1973         84.1962         84.2157         84.2091         84.2075         84.2180    
          84.2172         84.1339        1.000000E+30     84.1439        1.000000E+30    1.000000E+30     84.1546        1.000000E+30     84.1617        1.000000E+30
         1.000000E+30    1.000000E+30    1.000000E+30    1.000000E+30    1.000000E+30    1.000000E+30    1.000000E+30    1.000000E+30    1.000000E+30    1.000000E+30
         1.000000E+30    1.000000E+30    1.000000E+30    1.000000E+30     92.8172         92.7315         92.6207         92.4966         92.3504         92.1673    
          91.9295         91.6274         91.2269         90.7227         90.1929         89.6820         89.2191         88.8062         88.3956         87.9764    
          87.5634         87.1805         86.8662         86.5910         86.2938         85.9613         85.6468         85.3706         85.1145         84.8980    
          84.7236         84.5817         84.4615         84.3664         84.3022         84.2795         84.3350         84.3144         84.2587         84.2390    
          84.2290         84.2257         84.2374         84.2313         84.2579         84.2511        1.000000E+30     84.2608        1.000000E+30     84.2936    
          84.2861         84.3102         84.3046         84.2792         84.2726        1.000000E+30     84.2802        1.000000E+30     84.2957         84.2922    
          84.3045         84.3016         84.2888        1.000000E+30     84.2950        1.000000E+30    1.000000E+30    1.000000E+30    1.000000E+30    1.000000E+30
         1.000000E+30    1.000000E+30    1.000000E+30    1.000000E+30    1.000000E+30    1.000000E+30    1.000000E+30    1.000000E+30    1.000000E+30    1.000000E+30
         1.000000E+30    1.000000E+30    1.000000E+30     92.9142         92.8324         92.7289         92.6080         92.4590         92.2733         92.0392    
          91.7260         91.2930         90.7703         90.2469         89.7554         89.3025         88.8818         88.4590         88.0195         87.5845    
          87.1920         86.8710         86.5897         86.3058         86.0012         85.6870         85.3816         85.1181         84.9233         84.7730    
          84.6449         84.5301         84.4387         84.3763         84.3512         84.4080         84.3874         84.3310         84.3240         84.3473    
          84.3427         84.3162         84.3140         84.3254         84.3247        1.000000E+30     84.3364         84.3352         84.3448         84.3446    
         1.000000E+30     84.3680         84.3617         84.3846         84.3800         84.3553         84.3541         84.3633         84.3629        1.000000E+30
          84.3731         84.3714         84.3806         84.3786        1.000000E+30    1.000000E+30    1.000000E+30    1.000000E+30    1.000000E+30    1.000000E+30
         1.000000E+30    1.000000E+30    1.000000E+30    1.000000E+30    1.000000E+30    1.000000E+30     93.0055         92.9253         92.8233         92.7002    
          92.5438         92.3461         92.1088         91.8050         91.3560         90.8075         90.2952         89.8195         89.3840         88.9654    
          88.5329         88.0717         87.6137         87.2121         86.8833         86.5952         86.3080         86.0077         85.6834         85.3698    
          85.1171         84.9322         84.7992         84.6855         84.5777         84.4954         84.4449         84.4240         84.4694         84.4544    
          84.4060         84.3997         84.4221         84.4186         84.3907         84.3843         84.4014        1.000000E+30    1.000000E+30     84.4131    
         1.000000E+30     84.4213        1.000000E+30    1.000000E+30     84.4403         84.4359         84.4528         84.4498         84.4312        1.000000E+30
          84.4379        1.000000E+30    1.000000E+30     84.4458        1.000000E+30     84.4508        1.000000E+30    1.000000E+30    1.000000E+30    1.000000E+30
         1.000000E+30    1.000000E+30    1.000000E+30    1.000000E+30    1.000000E+30    1.000000E+30    1.000000E+30    1.000000E+30    1.000000E+30     93.0923    
          93.0072         92.9014         92.7711         92.6064         92.3876         92.1299         91.8210         91.4016         90.8800         90.3566    
          89.8820         89.4588         89.0448         88.5955         88.1143         87.6580         87.2561         86.9152         86.6056         86.2967    
          85.9886         85.6597         85.3472         85.1068         84.9319         84.8028         84.6946         84.5992         84.5305         84.4933    
          84.4785         84.5063         84.4952         84.4667         84.4607         84.4585         84.4659         84.4639         84.4766         84.4724    
          84.4712         84.4773         84.4769         84.4564        1.000000E+30     84.4601        1.000000E+30    1.000000E+30    1.000000E+30    1.000000E+30
          84.4870         84.4831         84.4822         84.4870         84.4866         84.4936         84.4912         84.4906         84.4942         84.4940    
         1.000000E+30    1.000000E+30    1.000000E+30    1.000000E+30    1.000000E+30    1.000000E+30    1.000000E+30    1.000000E+30    1.000000E+30    1.000000E+30
         1.000000E+30    1.000000E+30    1.000000E+30    1.000000E+30    1.000000E+30     93.1663         93.0726         92.9632         92.8250         92.6490    
          92.4124         92.1310         91.8110         91.4186         90.9391         90.4183         89.9366         89.5111         89.1069         88.6505    
          88.1506         87.7064         87.3075         86.9395         86.6090         86.2919         85.9857         85.6434         85.3183         85.0841    
          84.9162         84.7905         84.6903         84.6059         84.5460         84.5178         84.5064         84.5226         84.5124         84.5002    
          84.4977         84.4971         84.5000         84.4997         84.5040         84.5024         84.5019         84.5040         84.5038        1.000000E+30
         1.000000E+30    1.000000E+30    1.000000E+30     84.5076         84.5059         84.5055         84.5071         84.5068         84.5096         84.5084    
          84.5080         84.5093         84.5090        1.000000E+30    1.000000E+30    1.000000E+30    1.000000E+30    1.000000E+30    1.000000E+30    1.000000E+30
         1.000000E+30    1.000000E+30    1.000000E+30    1.000000E+30    1.000000E+30    1.000000E+30    1.000000E+30    1.000000E+30     93.2230         93.1154    
          92.9987         92.8514         92.6663         92.4250         92.1325         91.8091         91.4249         90.9630         90.4683         89.9868    
          89.5547         89.1520         88.6867         88.1754         87.7237         87.3163         86.9396         86.6117         86.2934         85.9788    
          85.6374         85.3101         85.0696         84.9013         84.7771         84.6858         84.6112         84.5537         84.5270         84.5165    
          84.5293         84.5188         84.5118         84.5104         84.5100         84.5111         84.5107         84.5134         84.5120         84.5113    
          84.5130        1.000000E+30    1.000000E+30    1.000000E+30    1.000000E+30    1.000000E+30     84.5149         84.5139        1.000000E+30     84.5144    
         1.000000E+30     84.5155         84.5148        1.000000E+30     84.5150        1.000000E+30    1.000000E+30    1.000000E+30    1.000000E+30    1.000000E+30
         1.000000E+30    1.000000E+30    1.000000E+30    1.000000E+30    1.000000E+30    1.000000E+30    1.000000E+30    1.000000E+30    1.000000E+30    1.000000E+30
         1.000000E+30

 HEAD WILL BE SAVED ON UNIT 1049 AT END OF TIME STEP  120, STRESS PERIOD    2


  VOLUME BUDGET FOR ENTIRE MODEL AT END OF TIME STEP  120, STRESS PERIOD   2
  ---------------------------------------------------------------------------------------------------

     CUMULATIVE VOLUME      L**3       RATES FOR THIS TIME STEP      L**3/T          PACKAGE NAME    
     ------------------                 ------------------------                     ----------------

           IN:                                      IN:
           ---                                      ---
              STO-SS =      274633.8665                STO-SS =          19.8047     STORAGE         
              STO-SY =    62855676.6737                STO-SY =       13639.9947     STORAGE         
                 WEL =           0.0000                   WEL =           0.0000     WEL_0           
                 DRN =           0.0000                   DRN =           0.0000     DRN2            
                 RIV =    59741910.2326                   RIV =       19206.9799     RIV_0           
                 GHB =    11899448.2913                   GHB =        6318.3686     GHB_0           
                 RCH =   160943449.4729                   RCH =       13163.6560     RCH             
                 EVT =           0.0000                   EVT =           0.0000     EVT             
                 CHD =           0.0000                   CHD =           0.0000     CHD_0           

            TOTAL IN =   295715118.5370              TOTAL IN =       52348.8039

          OUT:                                     OUT:
          ----                                     ----
              STO-SS =      240465.6712                STO-SS =          75.9064     STORAGE         
              STO-SY =    53349722.0316                STO-SY =        5979.9888     STORAGE         
                 WEL =     7810976.8364                   WEL =           0.0000     WEL_0           
                 DRN =    23620090.3752                   DRN =        5346.5716     DRN2            
                 RIV =   113214367.8070                   RIV =       23255.2029     RIV_0           
                 GHB =      718865.9133                   GHB =           0.0000     GHB_0           
                 RCH =           0.0000                   RCH =           0.0000     RCH             
                 EVT =           0.0000                   EVT =           0.0000     EVT             
                 CHD =    96760630.0120                   CHD =       17691.1336     CHD_0           

           TOTAL OUT =   295715118.6467             TOTAL OUT =       52348.8033

            IN - OUT =          -0.1097              IN - OUT =       5.4026E-04

 PERCENT DISCREPANCY =          -0.00     PERCENT DISCREPANCY =           0.00




         TIME SUMMARY AT END OF TIME STEP  120 IN STRESS PERIOD    2
                    SECONDS     MINUTES      HOURS       DAYS        YEARS
                    -----------------------------------------------------------
   TIME STEP LENGTH 2.63016E+06  43836.      730.60      30.442     8.33447E-02
 STRESS PERIOD TIME 3.15619E+08 5.26032E+06  87672.      3653.0      10.001    
         TOTAL TIME 3.15619E+08 5.26032E+06  87672.      3653.0      10.001    


end timestep

