Get the name of the MODPATH simulation file.
Read the first two records of the simulation file to get mpnamFile and mplistFile ...
Allocate rectangular unstructured grid component.
Allocate time discretization data component ...
Allocate disMf6Grid.
Read DIS binary grid file.
Read time discretization data component ...
 
 ----------------------------------------------------------
 Cell connection data:
 ----------------------------------------------------------
 Format has two lines for each cell, listed by cell number.
 Line 1: Cell connections
 Line 1: Face assignment codes
 ----------------------------------------------------------
        1       2      51
        0   20101   30101
 
        2       1       3      52
        0   10101   20101   30101
 
        3       2       4      53
        0   10101   20101   30101
 
        4       3       5      54
        0   10101   20101   30101
 
        5       4       6      55
        0   10101   20101   30101
 
        6       5       7      56
        0   10101   20101   30101
 
        7       6       8      57
        0   10101   20101   30101
 
        8       7       9      58
        0   10101   20101   30101
 
        9       8      10      59
        0   10101   20101   30101
 
       10       9      11      60
        0   10101   20101   30101
 
       11      10      12      61
        0   10101   20101   30101
 
       12      11      13      62
        0   10101   20101   30101
 
       13      12      14      63
        0   10101   20101   30101
 
       14      13      15      64
        0   10101   20101   30101
 
       15      14      16      65
        0   10101   20101   30101
 
       16      15      17      66
        0   10101   20101   30101
 
       17      16      18      67
        0   10101   20101   30101
 
       18      17      19      68
        0   10101   20101   30101
 
       19      18      20      69
        0   10101   20101   30101
 
       20      19      21      70
        0   10101   20101   30101
 
       21      20      22      71
        0   10101   20101   30101
 
       22      21      23      72
        0   10101   20101   30101
 
       23      22      24      73
        0   10101   20101   30101
 
       24      23      25      74
        0   10101   20101   30101
 
       25      24      26      75
        0   10101   20101   30101
 
       26      25      27      76
        0   10101   20101   30101
 
       27      26      28      77
        0   10101   20101   30101
 
       28      27      29      78
        0   10101   20101   30101
 
       29      28      30      79
        0   10101   20101   30101
 
       30      29      31      80
        0   10101   20101   30101
 
       31      30      32      81
        0   10101   20101   30101
 
       32      31      33      82
        0   10101   20101   30101
 
       33      32      34      83
        0   10101   20101   30101
 
       34      33      35      84
        0   10101   20101   30101
 
       35      34      36      85
        0   10101   20101   30101
 
       36      35      37      86
        0   10101   20101   30101
 
       37      36      38      87
        0   10101   20101   30101
 
       38      37      39      88
        0   10101   20101   30101
 
       39      38      40      89
        0   10101   20101   30101
 
       40      39      41      90
        0   10101   20101   30101
 
       41      40      42      91
        0   10101   20101   30101
 
       42      41      43      92
        0   10101   20101   30101
 
       43      42      44      93
        0   10101   20101   30101
 
       44      43      45      94
        0   10101   20101   30101
 
       45      44      46      95
        0   10101   20101   30101
 
       46      45      47      96
        0   10101   20101   30101
 
       47      46      48      97
        0   10101   20101   30101
 
       48      47      49      98
        0   10101   20101   30101
 
       49      48      50      99
        0   10101   20101   30101
 
       50      49     100
        0   10101   30101
 
       51       1      52     101
        0   40101   20101   30101
 
       52       2      51      53     102
        0   40101   10101   20101   30101
 
       53       3      52      54     103
        0   40101   10101   20101   30101
 
       54       4      53      55     104
        0   40101   10101   20101   30101
 
       55       5      54      56     105
        0   40101   10101   20101   30101
 
       56       6      55      57     106
        0   40101   10101   20101   30101
 
       57       7      56      58     107
        0   40101   10101   20101   30101
 
       58       8      57      59     108
        0   40101   10101   20101   30101
 
       59       9      58      60     109
        0   40101   10101   20101   30101
 
       60      10      59      61     110
        0   40101   10101   20101   30101
 
       61      11      60      62     111
        0   40101   10101   20101   30101
 
       62      12      61      63     112
        0   40101   10101   20101   30101
 
       63      13      62      64     113
        0   40101   10101   20101   30101
 
       64      14      63      65     114
        0   40101   10101   20101   30101
 
       65      15      64      66     115
        0   40101   10101   20101   30101
 
       66      16      65      67     116
        0   40101   10101   20101   30101
 
       67      17      66      68     117
        0   40101   10101   20101   30101
 
       68      18      67      69     118
        0   40101   10101   20101   30101
 
       69      19      68      70     119
        0   40101   10101   20101   30101
 
       70      20      69      71     120
        0   40101   10101   20101   30101
 
       71      21      70      72     121
        0   40101   10101   20101   30101
 
       72      22      71      73     122
        0   40101   10101   20101   30101
 
       73      23      72      74     123
        0   40101   10101   20101   30101
 
       74      24      73      75     124
        0   40101   10101   20101   30101
 
       75      25      74      76     125
        0   40101   10101   20101   30101
 
       76      26      75      77     126
        0   40101   10101   20101   30101
 
       77      27      76      78     127
        0   40101   10101   20101   30101
 
       78      28      77      79     128
        0   40101   10101   20101   30101
 
       79      29      78      80     129
        0   40101   10101   20101   30101
 
       80      30      79      81     130
        0   40101   10101   20101   30101
 
       81      31      80      82     131
        0   40101   10101   20101   30101
 
       82      32      81      83     132
        0   40101   10101   20101   30101
 
       83      33      82      84     133
        0   40101   10101   20101   30101
 
       84      34      83      85     134
        0   40101   10101   20101   30101
 
       85      35      84      86     135
        0   40101   10101   20101   30101
 
       86      36      85      87     136
        0   40101   10101   20101   30101
 
       87      37      86      88     137
        0   40101   10101   20101   30101
 
       88      38      87      89     138
        0   40101   10101   20101   30101
 
       89      39      88      90     139
        0   40101   10101   20101   30101
 
       90      40      89      91     140
        0   40101   10101   20101   30101
 
       91      41      90      92     141
        0   40101   10101   20101   30101
 
       92      42      91      93     142
        0   40101   10101   20101   30101
 
       93      43      92      94     143
        0   40101   10101   20101   30101
 
       94      44      93      95     144
        0   40101   10101   20101   30101
 
       95      45      94      96     145
        0   40101   10101   20101   30101
 
       96      46      95      97     146
        0   40101   10101   20101   30101
 
       97      47      96      98     147
        0   40101   10101   20101   30101
 
       98      48      97      99     148
        0   40101   10101   20101   30101
 
       99      49      98     100     149
        0   40101   10101   20101   30101
 
      100      50      99     150
        0   40101   10101   30101
 
      101      51     102     151
        0   40101   20101   30101
 
      102      52     101     103     152
        0   40101   10101   20101   30101
 
      103      53     102     104     153
        0   40101   10101   20101   30101
 
      104      54     103     105     154
        0   40101   10101   20101   30101
 
      105      55     104     106     155
        0   40101   10101   20101   30101
 
      106      56     105     107     156
        0   40101   10101   20101   30101
 
      107      57     106     108     157
        0   40101   10101   20101   30101
 
      108      58     107     109     158
        0   40101   10101   20101   30101
 
      109      59     108     110     159
        0   40101   10101   20101   30101
 
      110      60     109     111     160
        0   40101   10101   20101   30101
 
      111      61     110     112     161
        0   40101   10101   20101   30101
 
      112      62     111     113     162
        0   40101   10101   20101   30101
 
      113      63     112     114     163
        0   40101   10101   20101   30101
 
      114      64     113     115     164
        0   40101   10101   20101   30101
 
      115      65     114     116     165
        0   40101   10101   20101   30101
 
      116      66     115     117     166
        0   40101   10101   20101   30101
 
      117      67     116     118     167
        0   40101   10101   20101   30101
 
      118      68     117     119     168
        0   40101   10101   20101   30101
 
      119      69     118     120     169
        0   40101   10101   20101   30101
 
      120      70     119     121     170
        0   40101   10101   20101   30101
 
      121      71     120     122     171
        0   40101   10101   20101   30101
 
      122      72     121     123     172
        0   40101   10101   20101   30101
 
      123      73     122     124     173
        0   40101   10101   20101   30101
 
      124      74     123     125     174
        0   40101   10101   20101   30101
 
      125      75     124     126     175
        0   40101   10101   20101   30101
 
      126      76     125     127     176
        0   40101   10101   20101   30101
 
      127      77     126     128     177
        0   40101   10101   20101   30101
 
      128      78     127     129     178
        0   40101   10101   20101   30101
 
      129      79     128     130     179
        0   40101   10101   20101   30101
 
      130      80     129     131     180
        0   40101   10101   20101   30101
 
      131      81     130     132     181
        0   40101   10101   20101   30101
 
      132      82     131     133     182
        0   40101   10101   20101   30101
 
      133      83     132     134     183
        0   40101   10101   20101   30101
 
      134      84     133     135     184
        0   40101   10101   20101   30101
 
      135      85     134     136     185
        0   40101   10101   20101   30101
 
      136      86     135     137     186
        0   40101   10101   20101   30101
 
      137      87     136     138     187
        0   40101   10101   20101   30101
 
      138      88     137     139     188
        0   40101   10101   20101   30101
 
      139      89     138     140     189
        0   40101   10101   20101   30101
 
      140      90     139     141     190
        0   40101   10101   20101   30101
 
      141      91     140     142     191
        0   40101   10101   20101   30101
 
      142      92     141     143     192
        0   40101   10101   20101   30101
 
      143      93     142     144     193
        0   40101   10101   20101   30101
 
      144      94     143     145     194
        0   40101   10101   20101   30101
 
      145      95     144     146     195
        0   40101   10101   20101   30101
 
      146      96     145     147     196
        0   40101   10101   20101   30101
 
      147      97     146     148     197
        0   40101   10101   20101   30101
 
      148      98     147     149     198
        0   40101   10101   20101   30101
 
      149      99     148     150     199
        0   40101   10101   20101   30101
 
      150     100     149     200
        0   40101   10101   30101
 
      151     101     152     201
        0   40101   20101   30101
 
      152     102     151     153     202
        0   40101   10101   20101   30101
 
      153     103     152     154     203
        0   40101   10101   20101   30101
 
      154     104     153     155     204
        0   40101   10101   20101   30101
 
      155     105     154     156     205
        0   40101   10101   20101   30101
 
      156     106     155     157     206
        0   40101   10101   20101   30101
 
      157     107     156     158     207
        0   40101   10101   20101   30101
 
      158     108     157     159     208
        0   40101   10101   20101   30101
 
      159     109     158     160     209
        0   40101   10101   20101   30101
 
      160     110     159     161     210
        0   40101   10101   20101   30101
 
      161     111     160     162     211
        0   40101   10101   20101   30101
 
      162     112     161     163     212
        0   40101   10101   20101   30101
 
      163     113     162     164     213
        0   40101   10101   20101   30101
 
      164     114     163     165     214
        0   40101   10101   20101   30101
 
      165     115     164     166     215
        0   40101   10101   20101   30101
 
      166     116     165     167     216
        0   40101   10101   20101   30101
 
      167     117     166     168     217
        0   40101   10101   20101   30101
 
      168     118     167     169     218
        0   40101   10101   20101   30101
 
      169     119     168     170     219
        0   40101   10101   20101   30101
 
      170     120     169     171     220
        0   40101   10101   20101   30101
 
      171     121     170     172     221
        0   40101   10101   20101   30101
 
      172     122     171     173     222
        0   40101   10101   20101   30101
 
      173     123     172     174     223
        0   40101   10101   20101   30101
 
      174     124     173     175     224
        0   40101   10101   20101   30101
 
      175     125     174     176     225
        0   40101   10101   20101   30101
 
      176     126     175     177     226
        0   40101   10101   20101   30101
 
      177     127     176     178     227
        0   40101   10101   20101   30101
 
      178     128     177     179     228
        0   40101   10101   20101   30101
 
      179     129     178     180     229
        0   40101   10101   20101   30101
 
      180     130     179     181     230
        0   40101   10101   20101   30101
 
      181     131     180     182     231
        0   40101   10101   20101   30101
 
      182     132     181     183     232
        0   40101   10101   20101   30101
 
      183     133     182     184     233
        0   40101   10101   20101   30101
 
      184     134     183     185     234
        0   40101   10101   20101   30101
 
      185     135     184     186     235
        0   40101   10101   20101   30101
 
      186     136     185     187     236
        0   40101   10101   20101   30101
 
      187     137     186     188     237
        0   40101   10101   20101   30101
 
      188     138     187     189     238
        0   40101   10101   20101   30101
 
      189     139     188     190     239
        0   40101   10101   20101   30101
 
      190     140     189     191     240
        0   40101   10101   20101   30101
 
      191     141     190     192     241
        0   40101   10101   20101   30101
 
      192     142     191     193     242
        0   40101   10101   20101   30101
 
      193     143     192     194     243
        0   40101   10101   20101   30101
 
      194     144     193     195     244
        0   40101   10101   20101   30101
 
      195     145     194     196     245
        0   40101   10101   20101   30101
 
      196     146     195     197     246
        0   40101   10101   20101   30101
 
      197     147     196     198     247
        0   40101   10101   20101   30101
 
      198     148     197     199     248
        0   40101   10101   20101   30101
 
      199     149     198     200     249
        0   40101   10101   20101   30101
 
      200     150     199     250
        0   40101   10101   30101
 
      201     151     202     251
        0   40101   20101   30101
 
      202     152     201     203     252
        0   40101   10101   20101   30101
 
      203     153     202     204     253
        0   40101   10101   20101   30101
 
      204     154     203     205     254
        0   40101   10101   20101   30101
 
      205     155     204     206     255
        0   40101   10101   20101   30101
 
      206     156     205     207     256
        0   40101   10101   20101   30101
 
      207     157     206     208     257
        0   40101   10101   20101   30101
 
      208     158     207     209     258
        0   40101   10101   20101   30101
 
      209     159     208     210     259
        0   40101   10101   20101   30101
 
      210     160     209     211     260
        0   40101   10101   20101   30101
 
      211     161     210     212     261
        0   40101   10101   20101   30101
 
      212     162     211     213     262
        0   40101   10101   20101   30101
 
      213     163     212     214     263
        0   40101   10101   20101   30101
 
      214     164     213     215     264
        0   40101   10101   20101   30101
 
      215     165     214     216     265
        0   40101   10101   20101   30101
 
      216     166     215     217     266
        0   40101   10101   20101   30101
 
      217     167     216     218     267
        0   40101   10101   20101   30101
 
      218     168     217     219     268
        0   40101   10101   20101   30101
 
      219     169     218     220     269
        0   40101   10101   20101   30101
 
      220     170     219     221     270
        0   40101   10101   20101   30101
 
      221     171     220     222     271
        0   40101   10101   20101   30101
 
      222     172     221     223     272
        0   40101   10101   20101   30101
 
      223     173     222     224     273
        0   40101   10101   20101   30101
 
      224     174     223     225     274
        0   40101   10101   20101   30101
 
      225     175     224     226     275
        0   40101   10101   20101   30101
 
      226     176     225     227     276
        0   40101   10101   20101   30101
 
      227     177     226     228     277
        0   40101   10101   20101   30101
 
      228     178     227     229     278
        0   40101   10101   20101   30101
 
      229     179     228     230     279
        0   40101   10101   20101   30101
 
      230     180     229     231     280
        0   40101   10101   20101   30101
 
      231     181     230     232     281
        0   40101   10101   20101   30101
 
      232     182     231     233     282
        0   40101   10101   20101   30101
 
      233     183     232     234     283
        0   40101   10101   20101   30101
 
      234     184     233     235     284
        0   40101   10101   20101   30101
 
      235     185     234     236     285
        0   40101   10101   20101   30101
 
      236     186     235     237     286
        0   40101   10101   20101   30101
 
      237     187     236     238     287
        0   40101   10101   20101   30101
 
      238     188     237     239     288
        0   40101   10101   20101   30101
 
      239     189     238     240     289
        0   40101   10101   20101   30101
 
      240     190     239     241     290
        0   40101   10101   20101   30101
 
      241     191     240     242     291
        0   40101   10101   20101   30101
 
      242     192     241     243     292
        0   40101   10101   20101   30101
 
      243     193     242     244     293
        0   40101   10101   20101   30101
 
      244     194     243     245     294
        0   40101   10101   20101   30101
 
      245     195     244     246     295
        0   40101   10101   20101   30101
 
      246     196     245     247     296
        0   40101   10101   20101   30101
 
      247     197     246     248     297
        0   40101   10101   20101   30101
 
      248     198     247     249     298
        0   40101   10101   20101   30101
 
      249     199     248     250     299
        0   40101   10101   20101   30101
 
      250     200     249     300
        0   40101   10101   30101
 
      251     201     252     301
        0   40101   20101   30101
 
      252     202     251     253     302
        0   40101   10101   20101   30101
 
      253     203     252     254     303
        0   40101   10101   20101   30101
 
      254     204     253     255     304
        0   40101   10101   20101   30101
 
      255     205     254     256     305
        0   40101   10101   20101   30101
 
      256     206     255     257     306
        0   40101   10101   20101   30101
 
      257     207     256     258     307
        0   40101   10101   20101   30101
 
      258     208     257     259     308
        0   40101   10101   20101   30101
 
      259     209     258     260     309
        0   40101   10101   20101   30101
 
      260     210     259     261     310
        0   40101   10101   20101   30101
 
      261     211     260     262     311
        0   40101   10101   20101   30101
 
      262     212     261     263     312
        0   40101   10101   20101   30101
 
      263     213     262     264     313
        0   40101   10101   20101   30101
 
      264     214     263     265     314
        0   40101   10101   20101   30101
 
      265     215     264     266     315
        0   40101   10101   20101   30101
 
      266     216     265     267     316
        0   40101   10101   20101   30101
 
      267     217     266     268     317
        0   40101   10101   20101   30101
 
      268     218     267     269     318
        0   40101   10101   20101   30101
 
      269     219     268     270     319
        0   40101   10101   20101   30101
 
      270     220     269     271     320
        0   40101   10101   20101   30101
 
      271     221     270     272     321
        0   40101   10101   20101   30101
 
      272     222     271     273     322
        0   40101   10101   20101   30101
 
      273     223     272     274     323
        0   40101   10101   20101   30101
 
      274     224     273     275     324
        0   40101   10101   20101   30101
 
      275     225     274     276     325
        0   40101   10101   20101   30101
 
      276     226     275     277     326
        0   40101   10101   20101   30101
 
      277     227     276     278     327
        0   40101   10101   20101   30101
 
      278     228     277     279     328
        0   40101   10101   20101   30101
 
      279     229     278     280     329
        0   40101   10101   20101   30101
 
      280     230     279     281     330
        0   40101   10101   20101   30101
 
      281     231     280     282     331
        0   40101   10101   20101   30101
 
      282     232     281     283     332
        0   40101   10101   20101   30101
 
      283     233     282     284     333
        0   40101   10101   20101   30101
 
      284     234     283     285     334
        0   40101   10101   20101   30101
 
      285     235     284     286     335
        0   40101   10101   20101   30101
 
      286     236     285     287     336
        0   40101   10101   20101   30101
 
      287     237     286     288     337
        0   40101   10101   20101   30101
 
      288     238     287     289     338
        0   40101   10101   20101   30101
 
      289     239     288     290     339
        0   40101   10101   20101   30101
 
      290     240     289     291     340
        0   40101   10101   20101   30101
 
      291     241     290     292     341
        0   40101   10101   20101   30101
 
      292     242     291     293     342
        0   40101   10101   20101   30101
 
      293     243     292     294     343
        0   40101   10101   20101   30101
 
      294     244     293     295     344
        0   40101   10101   20101   30101
 
      295     245     294     296     345
        0   40101   10101   20101   30101
 
      296     246     295     297     346
        0   40101   10101   20101   30101
 
      297     247     296     298     347
        0   40101   10101   20101   30101
 
      298     248     297     299     348
        0   40101   10101   20101   30101
 
      299     249     298     300     349
        0   40101   10101   20101   30101
 
      300     250     299     350
        0   40101   10101   30101
 
      301     251     302     351
        0   40101   20101   30101
 
      302     252     301     303     352
        0   40101   10101   20101   30101
 
      303     253     302     304     353
        0   40101   10101   20101   30101
 
      304     254     303     305     354
        0   40101   10101   20101   30101
 
      305     255     304     306     355
        0   40101   10101   20101   30101
 
      306     256     305     307     356
        0   40101   10101   20101   30101
 
      307     257     306     308     357
        0   40101   10101   20101   30101
 
      308     258     307     309     358
        0   40101   10101   20101   30101
 
      309     259     308     310     359
        0   40101   10101   20101   30101
 
      310     260     309     311     360
        0   40101   10101   20101   30101
 
      311     261     310     312     361
        0   40101   10101   20101   30101
 
      312     262     311     313     362
        0   40101   10101   20101   30101
 
      313     263     312     314     363
        0   40101   10101   20101   30101
 
      314     264     313     315     364
        0   40101   10101   20101   30101
 
      315     265     314     316     365
        0   40101   10101   20101   30101
 
      316     266     315     317     366
        0   40101   10101   20101   30101
 
      317     267     316     318     367
        0   40101   10101   20101   30101
 
      318     268     317     319     368
        0   40101   10101   20101   30101
 
      319     269     318     320     369
        0   40101   10101   20101   30101
 
      320     270     319     321     370
        0   40101   10101   20101   30101
 
      321     271     320     322     371
        0   40101   10101   20101   30101
 
      322     272     321     323     372
        0   40101   10101   20101   30101
 
      323     273     322     324     373
        0   40101   10101   20101   30101
 
      324     274     323     325     374
        0   40101   10101   20101   30101
 
      325     275     324     326     375
        0   40101   10101   20101   30101
 
      326     276     325     327     376
        0   40101   10101   20101   30101
 
      327     277     326     328     377
        0   40101   10101   20101   30101
 
      328     278     327     329     378
        0   40101   10101   20101   30101
 
      329     279     328     330     379
        0   40101   10101   20101   30101
 
      330     280     329     331     380
        0   40101   10101   20101   30101
 
      331     281     330     332     381
        0   40101   10101   20101   30101
 
      332     282     331     333     382
        0   40101   10101   20101   30101
 
      333     283     332     334     383
        0   40101   10101   20101   30101
 
      334     284     333     335     384
        0   40101   10101   20101   30101
 
      335     285     334     336     385
        0   40101   10101   20101   30101
 
      336     286     335     337     386
        0   40101   10101   20101   30101
 
      337     287     336     338     387
        0   40101   10101   20101   30101
 
      338     288     337     339     388
        0   40101   10101   20101   30101
 
      339     289     338     340     389
        0   40101   10101   20101   30101
 
      340     290     339     341     390
        0   40101   10101   20101   30101
 
      341     291     340     342     391
        0   40101   10101   20101   30101
 
      342     292     341     343     392
        0   40101   10101   20101   30101
 
      343     293     342     344     393
        0   40101   10101   20101   30101
 
      344     294     343     345     394
        0   40101   10101   20101   30101
 
      345     295     344     346     395
        0   40101   10101   20101   30101
 
      346     296     345     347     396
        0   40101   10101   20101   30101
 
      347     297     346     348     397
        0   40101   10101   20101   30101
 
      348     298     347     349     398
        0   40101   10101   20101   30101
 
      349     299     348     350     399
        0   40101   10101   20101   30101
 
      350     300     349     400
        0   40101   10101   30101
 
      351     301     352     401
        0   40101   20101   30101
 
      352     302     351     353     402
        0   40101   10101   20101   30101
 
      353     303     352     354     403
        0   40101   10101   20101   30101
 
      354     304     353     355     404
        0   40101   10101   20101   30101
 
      355     305     354     356     405
        0   40101   10101   20101   30101
 
      356     306     355     357     406
        0   40101   10101   20101   30101
 
      357     307     356     358     407
        0   40101   10101   20101   30101
 
      358     308     357     359     408
        0   40101   10101   20101   30101
 
      359     309     358     360     409
        0   40101   10101   20101   30101
 
      360     310     359     361     410
        0   40101   10101   20101   30101
 
      361     311     360     362     411
        0   40101   10101   20101   30101
 
      362     312     361     363     412
        0   40101   10101   20101   30101
 
      363     313     362     364     413
        0   40101   10101   20101   30101
 
      364     314     363     365     414
        0   40101   10101   20101   30101
 
      365     315     364     366     415
        0   40101   10101   20101   30101
 
      366     316     365     367     416
        0   40101   10101   20101   30101
 
      367     317     366     368     417
        0   40101   10101   20101   30101
 
      368     318     367     369     418
        0   40101   10101   20101   30101
 
      369     319     368     370     419
        0   40101   10101   20101   30101
 
      370     320     369     371     420
        0   40101   10101   20101   30101
 
      371     321     370     372     421
        0   40101   10101   20101   30101
 
      372     322     371     373     422
        0   40101   10101   20101   30101
 
      373     323     372     374     423
        0   40101   10101   20101   30101
 
      374     324     373     375     424
        0   40101   10101   20101   30101
 
      375     325     374     376     425
        0   40101   10101   20101   30101
 
      376     326     375     377     426
        0   40101   10101   20101   30101
 
      377     327     376     378     427
        0   40101   10101   20101   30101
 
      378     328     377     379     428
        0   40101   10101   20101   30101
 
      379     329     378     380     429
        0   40101   10101   20101   30101
 
      380     330     379     381     430
        0   40101   10101   20101   30101
 
      381     331     380     382     431
        0   40101   10101   20101   30101
 
      382     332     381     383     432
        0   40101   10101   20101   30101
 
      383     333     382     384     433
        0   40101   10101   20101   30101
 
      384     334     383     385     434
        0   40101   10101   20101   30101
 
      385     335     384     386     435
        0   40101   10101   20101   30101
 
      386     336     385     387     436
        0   40101   10101   20101   30101
 
      387     337     386     388     437
        0   40101   10101   20101   30101
 
      388     338     387     389     438
        0   40101   10101   20101   30101
 
      389     339     388     390     439
        0   40101   10101   20101   30101
 
      390     340     389     391     440
        0   40101   10101   20101   30101
 
      391     341     390     392     441
        0   40101   10101   20101   30101
 
      392     342     391     393     442
        0   40101   10101   20101   30101
 
      393     343     392     394     443
        0   40101   10101   20101   30101
 
      394     344     393     395     444
        0   40101   10101   20101   30101
 
      395     345     394     396     445
        0   40101   10101   20101   30101
 
      396     346     395     397     446
        0   40101   10101   20101   30101
 
      397     347     396     398     447
        0   40101   10101   20101   30101
 
      398     348     397     399     448
        0   40101   10101   20101   30101
 
      399     349     398     400     449
        0   40101   10101   20101   30101
 
      400     350     399     450
        0   40101   10101   30101
 
      401     351     402     451
        0   40101   20101   30101
 
      402     352     401     403     452
        0   40101   10101   20101   30101
 
      403     353     402     404     453
        0   40101   10101   20101   30101
 
      404     354     403     405     454
        0   40101   10101   20101   30101
 
      405     355     404     406     455
        0   40101   10101   20101   30101
 
      406     356     405     407     456
        0   40101   10101   20101   30101
 
      407     357     406     408     457
        0   40101   10101   20101   30101
 
      408     358     407     409     458
        0   40101   10101   20101   30101
 
      409     359     408     410     459
        0   40101   10101   20101   30101
 
      410     360     409     411     460
        0   40101   10101   20101   30101
 
      411     361     410     412     461
        0   40101   10101   20101   30101
 
      412     362     411     413     462
        0   40101   10101   20101   30101
 
      413     363     412     414     463
        0   40101   10101   20101   30101
 
      414     364     413     415     464
        0   40101   10101   20101   30101
 
      415     365     414     416     465
        0   40101   10101   20101   30101
 
      416     366     415     417     466
        0   40101   10101   20101   30101
 
      417     367     416     418     467
        0   40101   10101   20101   30101
 
      418     368     417     419     468
        0   40101   10101   20101   30101
 
      419     369     418     420     469
        0   40101   10101   20101   30101
 
      420     370     419     421     470
        0   40101   10101   20101   30101
 
      421     371     420     422     471
        0   40101   10101   20101   30101
 
      422     372     421     423     472
        0   40101   10101   20101   30101
 
      423     373     422     424     473
        0   40101   10101   20101   30101
 
      424     374     423     425     474
        0   40101   10101   20101   30101
 
      425     375     424     426     475
        0   40101   10101   20101   30101
 
      426     376     425     427     476
        0   40101   10101   20101   30101
 
      427     377     426     428     477
        0   40101   10101   20101   30101
 
      428     378     427     429     478
        0   40101   10101   20101   30101
 
      429     379     428     430     479
        0   40101   10101   20101   30101
 
      430     380     429     431     480
        0   40101   10101   20101   30101
 
      431     381     430     432     481
        0   40101   10101   20101   30101
 
      432     382     431     433     482
        0   40101   10101   20101   30101
 
      433     383     432     434     483
        0   40101   10101   20101   30101
 
      434     384     433     435     484
        0   40101   10101   20101   30101
 
      435     385     434     436     485
        0   40101   10101   20101   30101
 
      436     386     435     437     486
        0   40101   10101   20101   30101
 
      437     387     436     438     487
        0   40101   10101   20101   30101
 
      438     388     437     439     488
        0   40101   10101   20101   30101
 
      439     389     438     440     489
        0   40101   10101   20101   30101
 
      440     390     439     441     490
        0   40101   10101   20101   30101
 
      441     391     440     442     491
        0   40101   10101   20101   30101
 
      442     392     441     443     492
        0   40101   10101   20101   30101
 
      443     393     442     444     493
        0   40101   10101   20101   30101
 
      444     394     443     445     494
        0   40101   10101   20101   30101
 
      445     395     444     446     495
        0   40101   10101   20101   30101
 
      446     396     445     447     496
        0   40101   10101   20101   30101
 
      447     397     446     448     497
        0   40101   10101   20101   30101
 
      448     398     447     449     498
        0   40101   10101   20101   30101
 
      449     399     448     450     499
        0   40101   10101   20101   30101
 
      450     400     449     500
        0   40101   10101   30101
 
      451     401     452     501
        0   40101   20101   30101
 
      452     402     451     453     502
        0   40101   10101   20101   30101
 
      453     403     452     454     503
        0   40101   10101   20101   30101
 
      454     404     453     455     504
        0   40101   10101   20101   30101
 
      455     405     454     456     505
        0   40101   10101   20101   30101
 
      456     406     455     457     506
        0   40101   10101   20101   30101
 
      457     407     456     458     507
        0   40101   10101   20101   30101
 
      458     408     457     459     508
        0   40101   10101   20101   30101
 
      459     409     458     460     509
        0   40101   10101   20101   30101
 
      460     410     459     461     510
        0   40101   10101   20101   30101
 
      461     411     460     462     511
        0   40101   10101   20101   30101
 
      462     412     461     463     512
        0   40101   10101   20101   30101
 
      463     413     462     464     513
        0   40101   10101   20101   30101
 
      464     414     463     465     514
        0   40101   10101   20101   30101
 
      465     415     464     466     515
        0   40101   10101   20101   30101
 
      466     416     465     467     516
        0   40101   10101   20101   30101
 
      467     417     466     468     517
        0   40101   10101   20101   30101
 
      468     418     467     469     518
        0   40101   10101   20101   30101
 
      469     419     468     470     519
        0   40101   10101   20101   30101
 
      470     420     469     471     520
        0   40101   10101   20101   30101
 
      471     421     470     472     521
        0   40101   10101   20101   30101
 
      472     422     471     473     522
        0   40101   10101   20101   30101
 
      473     423     472     474     523
        0   40101   10101   20101   30101
 
      474     424     473     475     524
        0   40101   10101   20101   30101
 
      475     425     474     476     525
        0   40101   10101   20101   30101
 
      476     426     475     477     526
        0   40101   10101   20101   30101
 
      477     427     476     478     527
        0   40101   10101   20101   30101
 
      478     428     477     479     528
        0   40101   10101   20101   30101
 
      479     429     478     480     529
        0   40101   10101   20101   30101
 
      480     430     479     481     530
        0   40101   10101   20101   30101
 
      481     431     480     482     531
        0   40101   10101   20101   30101
 
      482     432     481     483     532
        0   40101   10101   20101   30101
 
      483     433     482     484     533
        0   40101   10101   20101   30101
 
      484     434     483     485     534
        0   40101   10101   20101   30101
 
      485     435     484     486     535
        0   40101   10101   20101   30101
 
      486     436     485     487     536
        0   40101   10101   20101   30101
 
      487     437     486     488     537
        0   40101   10101   20101   30101
 
      488     438     487     489     538
        0   40101   10101   20101   30101
 
      489     439     488     490     539
        0   40101   10101   20101   30101
 
      490     440     489     491     540
        0   40101   10101   20101   30101
 
      491     441     490     492     541
        0   40101   10101   20101   30101
 
      492     442     491     493     542
        0   40101   10101   20101   30101
 
      493     443     492     494     543
        0   40101   10101   20101   30101
 
      494     444     493     495     544
        0   40101   10101   20101   30101
 
      495     445     494     496     545
        0   40101   10101   20101   30101
 
      496     446     495     497     546
        0   40101   10101   20101   30101
 
      497     447     496     498     547
        0   40101   10101   20101   30101
 
      498     448     497     499     548
        0   40101   10101   20101   30101
 
      499     449     498     500     549
        0   40101   10101   20101   30101
 
      500     450     499     550
        0   40101   10101   30101
 
      501     451     502     551
        0   40101   20101   30101
 
      502     452     501     503     552
        0   40101   10101   20101   30101
 
      503     453     502     504     553
        0   40101   10101   20101   30101
 
      504     454     503     505     554
        0   40101   10101   20101   30101
 
      505     455     504     506     555
        0   40101   10101   20101   30101
 
      506     456     505     507     556
        0   40101   10101   20101   30101
 
      507     457     506     508     557
        0   40101   10101   20101   30101
 
      508     458     507     509     558
        0   40101   10101   20101   30101
 
      509     459     508     510     559
        0   40101   10101   20101   30101
 
      510     460     509     511     560
        0   40101   10101   20101   30101
 
      511     461     510     512     561
        0   40101   10101   20101   30101
 
      512     462     511     513     562
        0   40101   10101   20101   30101
 
      513     463     512     514     563
        0   40101   10101   20101   30101
 
      514     464     513     515     564
        0   40101   10101   20101   30101
 
      515     465     514     516     565
        0   40101   10101   20101   30101
 
      516     466     515     517     566
        0   40101   10101   20101   30101
 
      517     467     516     518     567
        0   40101   10101   20101   30101
 
      518     468     517     519     568
        0   40101   10101   20101   30101
 
      519     469     518     520     569
        0   40101   10101   20101   30101
 
      520     470     519     521     570
        0   40101   10101   20101   30101
 
      521     471     520     522     571
        0   40101   10101   20101   30101
 
      522     472     521     523     572
        0   40101   10101   20101   30101
 
      523     473     522     524     573
        0   40101   10101   20101   30101
 
      524     474     523     525     574
        0   40101   10101   20101   30101
 
      525     475     524     526     575
        0   40101   10101   20101   30101
 
      526     476     525     527     576
        0   40101   10101   20101   30101
 
      527     477     526     528     577
        0   40101   10101   20101   30101
 
      528     478     527     529     578
        0   40101   10101   20101   30101
 
      529     479     528     530     579
        0   40101   10101   20101   30101
 
      530     480     529     531     580
        0   40101   10101   20101   30101
 
      531     481     530     532     581
        0   40101   10101   20101   30101
 
      532     482     531     533     582
        0   40101   10101   20101   30101
 
      533     483     532     534     583
        0   40101   10101   20101   30101
 
      534     484     533     535     584
        0   40101   10101   20101   30101
 
      535     485     534     536     585
        0   40101   10101   20101   30101
 
      536     486     535     537     586
        0   40101   10101   20101   30101
 
      537     487     536     538     587
        0   40101   10101   20101   30101
 
      538     488     537     539     588
        0   40101   10101   20101   30101
 
      539     489     538     540     589
        0   40101   10101   20101   30101
 
      540     490     539     541     590
        0   40101   10101   20101   30101
 
      541     491     540     542     591
        0   40101   10101   20101   30101
 
      542     492     541     543     592
        0   40101   10101   20101   30101
 
      543     493     542     544     593
        0   40101   10101   20101   30101
 
      544     494     543     545     594
        0   40101   10101   20101   30101
 
      545     495     544     546     595
        0   40101   10101   20101   30101
 
      546     496     545     547     596
        0   40101   10101   20101   30101
 
      547     497     546     548     597
        0   40101   10101   20101   30101
 
      548     498     547     549     598
        0   40101   10101   20101   30101
 
      549     499     548     550     599
        0   40101   10101   20101   30101
 
      550     500     549     600
        0   40101   10101   30101
 
      551     501     552     601
        0   40101   20101   30101
 
      552     502     551     553     602
        0   40101   10101   20101   30101
 
      553     503     552     554     603
        0   40101   10101   20101   30101
 
      554     504     553     555     604
        0   40101   10101   20101   30101
 
      555     505     554     556     605
        0   40101   10101   20101   30101
 
      556     506     555     557     606
        0   40101   10101   20101   30101
 
      557     507     556     558     607
        0   40101   10101   20101   30101
 
      558     508     557     559     608
        0   40101   10101   20101   30101
 
      559     509     558     560     609
        0   40101   10101   20101   30101
 
      560     510     559     561     610
        0   40101   10101   20101   30101
 
      561     511     560     562     611
        0   40101   10101   20101   30101
 
      562     512     561     563     612
        0   40101   10101   20101   30101
 
      563     513     562     564     613
        0   40101   10101   20101   30101
 
      564     514     563     565     614
        0   40101   10101   20101   30101
 
      565     515     564     566     615
        0   40101   10101   20101   30101
 
      566     516     565     567     616
        0   40101   10101   20101   30101
 
      567     517     566     568     617
        0   40101   10101   20101   30101
 
      568     518     567     569     618
        0   40101   10101   20101   30101
 
      569     519     568     570     619
        0   40101   10101   20101   30101
 
      570     520     569     571     620
        0   40101   10101   20101   30101
 
      571     521     570     572     621
        0   40101   10101   20101   30101
 
      572     522     571     573     622
        0   40101   10101   20101   30101
 
      573     523     572     574     623
        0   40101   10101   20101   30101
 
      574     524     573     575     624
        0   40101   10101   20101   30101
 
      575     525     574     576     625
        0   40101   10101   20101   30101
 
      576     526     575     577     626
        0   40101   10101   20101   30101
 
      577     527     576     578     627
        0   40101   10101   20101   30101
 
      578     528     577     579     628
        0   40101   10101   20101   30101
 
      579     529     578     580     629
        0   40101   10101   20101   30101
 
      580     530     579     581     630
        0   40101   10101   20101   30101
 
      581     531     580     582     631
        0   40101   10101   20101   30101
 
      582     532     581     583     632
        0   40101   10101   20101   30101
 
      583     533     582     584     633
        0   40101   10101   20101   30101
 
      584     534     583     585     634
        0   40101   10101   20101   30101
 
      585     535     584     586     635
        0   40101   10101   20101   30101
 
      586     536     585     587     636
        0   40101   10101   20101   30101
 
      587     537     586     588     637
        0   40101   10101   20101   30101
 
      588     538     587     589     638
        0   40101   10101   20101   30101
 
      589     539     588     590     639
        0   40101   10101   20101   30101
 
      590     540     589     591     640
        0   40101   10101   20101   30101
 
      591     541     590     592     641
        0   40101   10101   20101   30101
 
      592     542     591     593     642
        0   40101   10101   20101   30101
 
      593     543     592     594     643
        0   40101   10101   20101   30101
 
      594     544     593     595     644
        0   40101   10101   20101   30101
 
      595     545     594     596     645
        0   40101   10101   20101   30101
 
      596     546     595     597     646
        0   40101   10101   20101   30101
 
      597     547     596     598     647
        0   40101   10101   20101   30101
 
      598     548     597     599     648
        0   40101   10101   20101   30101
 
      599     549     598     600     649
        0   40101   10101   20101   30101
 
      600     550     599     650
        0   40101   10101   30101
 
      601     551     602     651
        0   40101   20101   30101
 
      602     552     601     603     652
        0   40101   10101   20101   30101
 
      603     553     602     604     653
        0   40101   10101   20101   30101
 
      604     554     603     605     654
        0   40101   10101   20101   30101
 
      605     555     604     606     655
        0   40101   10101   20101   30101
 
      606     556     605     607     656
        0   40101   10101   20101   30101
 
      607     557     606     608     657
        0   40101   10101   20101   30101
 
      608     558     607     609     658
        0   40101   10101   20101   30101
 
      609     559     608     610     659
        0   40101   10101   20101   30101
 
      610     560     609     611     660
        0   40101   10101   20101   30101
 
      611     561     610     612     661
        0   40101   10101   20101   30101
 
      612     562     611     613     662
        0   40101   10101   20101   30101
 
      613     563     612     614     663
        0   40101   10101   20101   30101
 
      614     564     613     615     664
        0   40101   10101   20101   30101
 
      615     565     614     616     665
        0   40101   10101   20101   30101
 
      616     566     615     617     666
        0   40101   10101   20101   30101
 
      617     567     616     618     667
        0   40101   10101   20101   30101
 
      618     568     617     619     668
        0   40101   10101   20101   30101
 
      619     569     618     620     669
        0   40101   10101   20101   30101
 
      620     570     619     621     670
        0   40101   10101   20101   30101
 
      621     571     620     622     671
        0   40101   10101   20101   30101
 
      622     572     621     623     672
        0   40101   10101   20101   30101
 
      623     573     622     624     673
        0   40101   10101   20101   30101
 
      624     574     623     625     674
        0   40101   10101   20101   30101
 
      625     575     624     626     675
        0   40101   10101   20101   30101
 
      626     576     625     627     676
        0   40101   10101   20101   30101
 
      627     577     626     628     677
        0   40101   10101   20101   30101
 
      628     578     627     629     678
        0   40101   10101   20101   30101
 
      629     579     628     630     679
        0   40101   10101   20101   30101
 
      630     580     629     631     680
        0   40101   10101   20101   30101
 
      631     581     630     632     681
        0   40101   10101   20101   30101
 
      632     582     631     633     682
        0   40101   10101   20101   30101
 
      633     583     632     634     683
        0   40101   10101   20101   30101
 
      634     584     633     635     684
        0   40101   10101   20101   30101
 
      635     585     634     636     685
        0   40101   10101   20101   30101
 
      636     586     635     637     686
        0   40101   10101   20101   30101
 
      637     587     636     638     687
        0   40101   10101   20101   30101
 
      638     588     637     639     688
        0   40101   10101   20101   30101
 
      639     589     638     640     689
        0   40101   10101   20101   30101
 
      640     590     639     641     690
        0   40101   10101   20101   30101
 
      641     591     640     642     691
        0   40101   10101   20101   30101
 
      642     592     641     643     692
        0   40101   10101   20101   30101
 
      643     593     642     644     693
        0   40101   10101   20101   30101
 
      644     594     643     645     694
        0   40101   10101   20101   30101
 
      645     595     644     646     695
        0   40101   10101   20101   30101
 
      646     596     645     647     696
        0   40101   10101   20101   30101
 
      647     597     646     648     697
        0   40101   10101   20101   30101
 
      648     598     647     649     698
        0   40101   10101   20101   30101
 
      649     599     648     650     699
        0   40101   10101   20101   30101
 
      650     600     649     700
        0   40101   10101   30101
 
      651     601     652     701
        0   40101   20101   30101
 
      652     602     651     653     702
        0   40101   10101   20101   30101
 
      653     603     652     654     703
        0   40101   10101   20101   30101
 
      654     604     653     655     704
        0   40101   10101   20101   30101
 
      655     605     654     656     705
        0   40101   10101   20101   30101
 
      656     606     655     657     706
        0   40101   10101   20101   30101
 
      657     607     656     658     707
        0   40101   10101   20101   30101
 
      658     608     657     659     708
        0   40101   10101   20101   30101
 
      659     609     658     660     709
        0   40101   10101   20101   30101
 
      660     610     659     661     710
        0   40101   10101   20101   30101
 
      661     611     660     662     711
        0   40101   10101   20101   30101
 
      662     612     661     663     712
        0   40101   10101   20101   30101
 
      663     613     662     664     713
        0   40101   10101   20101   30101
 
      664     614     663     665     714
        0   40101   10101   20101   30101
 
      665     615     664     666     715
        0   40101   10101   20101   30101
 
      666     616     665     667     716
        0   40101   10101   20101   30101
 
      667     617     666     668     717
        0   40101   10101   20101   30101
 
      668     618     667     669     718
        0   40101   10101   20101   30101
 
      669     619     668     670     719
        0   40101   10101   20101   30101
 
      670     620     669     671     720
        0   40101   10101   20101   30101
 
      671     621     670     672     721
        0   40101   10101   20101   30101
 
      672     622     671     673     722
        0   40101   10101   20101   30101
 
      673     623     672     674     723
        0   40101   10101   20101   30101
 
      674     624     673     675     724
        0   40101   10101   20101   30101
 
      675     625     674     676     725
        0   40101   10101   20101   30101
 
      676     626     675     677     726
        0   40101   10101   20101   30101
 
      677     627     676     678     727
        0   40101   10101   20101   30101
 
      678     628     677     679     728
        0   40101   10101   20101   30101
 
      679     629     678     680     729
        0   40101   10101   20101   30101
 
      680     630     679     681     730
        0   40101   10101   20101   30101
 
      681     631     680     682     731
        0   40101   10101   20101   30101
 
      682     632     681     683     732
        0   40101   10101   20101   30101
 
      683     633     682     684     733
        0   40101   10101   20101   30101
 
      684     634     683     685     734
        0   40101   10101   20101   30101
 
      685     635     684     686     735
        0   40101   10101   20101   30101
 
      686     636     685     687     736
        0   40101   10101   20101   30101
 
      687     637     686     688     737
        0   40101   10101   20101   30101
 
      688     638     687     689     738
        0   40101   10101   20101   30101
 
      689     639     688     690     739
        0   40101   10101   20101   30101
 
      690     640     689     691     740
        0   40101   10101   20101   30101
 
      691     641     690     692     741
        0   40101   10101   20101   30101
 
      692     642     691     693     742
        0   40101   10101   20101   30101
 
      693     643     692     694     743
        0   40101   10101   20101   30101
 
      694     644     693     695     744
        0   40101   10101   20101   30101
 
      695     645     694     696     745
        0   40101   10101   20101   30101
 
      696     646     695     697     746
        0   40101   10101   20101   30101
 
      697     647     696     698     747
        0   40101   10101   20101   30101
 
      698     648     697     699     748
        0   40101   10101   20101   30101
 
      699     649     698     700     749
        0   40101   10101   20101   30101
 
      700     650     699     750
        0   40101   10101   30101
 
      701     651     702     751
        0   40101   20101   30101
 
      702     652     701     703     752
        0   40101   10101   20101   30101
 
      703     653     702     704     753
        0   40101   10101   20101   30101
 
      704     654     703     705     754
        0   40101   10101   20101   30101
 
      705     655     704     706     755
        0   40101   10101   20101   30101
 
      706     656     705     707     756
        0   40101   10101   20101   30101
 
      707     657     706     708     757
        0   40101   10101   20101   30101
 
      708     658     707     709     758
        0   40101   10101   20101   30101
 
      709     659     708     710     759
        0   40101   10101   20101   30101
 
      710     660     709     711     760
        0   40101   10101   20101   30101
 
      711     661     710     712     761
        0   40101   10101   20101   30101
 
      712     662     711     713     762
        0   40101   10101   20101   30101
 
      713     663     712     714     763
        0   40101   10101   20101   30101
 
      714     664     713     715     764
        0   40101   10101   20101   30101
 
      715     665     714     716     765
        0   40101   10101   20101   30101
 
      716     666     715     717     766
        0   40101   10101   20101   30101
 
      717     667     716     718     767
        0   40101   10101   20101   30101
 
      718     668     717     719     768
        0   40101   10101   20101   30101
 
      719     669     718     720     769
        0   40101   10101   20101   30101
 
      720     670     719     721     770
        0   40101   10101   20101   30101
 
      721     671     720     722     771
        0   40101   10101   20101   30101
 
      722     672     721     723     772
        0   40101   10101   20101   30101
 
      723     673     722     724     773
        0   40101   10101   20101   30101
 
      724     674     723     725     774
        0   40101   10101   20101   30101
 
      725     675     724     726     775
        0   40101   10101   20101   30101
 
      726     676     725     727     776
        0   40101   10101   20101   30101
 
      727     677     726     728     777
        0   40101   10101   20101   30101
 
      728     678     727     729     778
        0   40101   10101   20101   30101
 
      729     679     728     730     779
        0   40101   10101   20101   30101
 
      730     680     729     731     780
        0   40101   10101   20101   30101
 
      731     681     730     732     781
        0   40101   10101   20101   30101
 
      732     682     731     733     782
        0   40101   10101   20101   30101
 
      733     683     732     734     783
        0   40101   10101   20101   30101
 
      734     684     733     735     784
        0   40101   10101   20101   30101
 
      735     685     734     736     785
        0   40101   10101   20101   30101
 
      736     686     735     737     786
        0   40101   10101   20101   30101
 
      737     687     736     738     787
        0   40101   10101   20101   30101
 
      738     688     737     739     788
        0   40101   10101   20101   30101
 
      739     689     738     740     789
        0   40101   10101   20101   30101
 
      740     690     739     741     790
        0   40101   10101   20101   30101
 
      741     691     740     742     791
        0   40101   10101   20101   30101
 
      742     692     741     743     792
        0   40101   10101   20101   30101
 
      743     693     742     744     793
        0   40101   10101   20101   30101
 
      744     694     743     745     794
        0   40101   10101   20101   30101
 
      745     695     744     746     795
        0   40101   10101   20101   30101
 
      746     696     745     747     796
        0   40101   10101   20101   30101
 
      747     697     746     748     797
        0   40101   10101   20101   30101
 
      748     698     747     749     798
        0   40101   10101   20101   30101
 
      749     699     748     750     799
        0   40101   10101   20101   30101
 
      750     700     749     800
        0   40101   10101   30101
 
      751     701     752     801
        0   40101   20101   30101
 
      752     702     751     753     802
        0   40101   10101   20101   30101
 
      753     703     752     754     803
        0   40101   10101   20101   30101
 
      754     704     753     755     804
        0   40101   10101   20101   30101
 
      755     705     754     756     805
        0   40101   10101   20101   30101
 
      756     706     755     757     806
        0   40101   10101   20101   30101
 
      757     707     756     758     807
        0   40101   10101   20101   30101
 
      758     708     757     759     808
        0   40101   10101   20101   30101
 
      759     709     758     760     809
        0   40101   10101   20101   30101
 
      760     710     759     761     810
        0   40101   10101   20101   30101
 
      761     711     760     762     811
        0   40101   10101   20101   30101
 
      762     712     761     763     812
        0   40101   10101   20101   30101
 
      763     713     762     764     813
        0   40101   10101   20101   30101
 
      764     714     763     765     814
        0   40101   10101   20101   30101
 
      765     715     764     766     815
        0   40101   10101   20101   30101
 
      766     716     765     767     816
        0   40101   10101   20101   30101
 
      767     717     766     768     817
        0   40101   10101   20101   30101
 
      768     718     767     769     818
        0   40101   10101   20101   30101
 
      769     719     768     770     819
        0   40101   10101   20101   30101
 
      770     720     769     771     820
        0   40101   10101   20101   30101
 
      771     721     770     772     821
        0   40101   10101   20101   30101
 
      772     722     771     773     822
        0   40101   10101   20101   30101
 
      773     723     772     774     823
        0   40101   10101   20101   30101
 
      774     724     773     775     824
        0   40101   10101   20101   30101
 
      775     725     774     776     825
        0   40101   10101   20101   30101
 
      776     726     775     777     826
        0   40101   10101   20101   30101
 
      777     727     776     778     827
        0   40101   10101   20101   30101
 
      778     728     777     779     828
        0   40101   10101   20101   30101
 
      779     729     778     780     829
        0   40101   10101   20101   30101
 
      780     730     779     781     830
        0   40101   10101   20101   30101
 
      781     731     780     782     831
        0   40101   10101   20101   30101
 
      782     732     781     783     832
        0   40101   10101   20101   30101
 
      783     733     782     784     833
        0   40101   10101   20101   30101
 
      784     734     783     785     834
        0   40101   10101   20101   30101
 
      785     735     784     786     835
        0   40101   10101   20101   30101
 
      786     736     785     787     836
        0   40101   10101   20101   30101
 
      787     737     786     788     837
        0   40101   10101   20101   30101
 
      788     738     787     789     838
        0   40101   10101   20101   30101
 
      789     739     788     790     839
        0   40101   10101   20101   30101
 
      790     740     789     791     840
        0   40101   10101   20101   30101
 
      791     741     790     792     841
        0   40101   10101   20101   30101
 
      792     742     791     793     842
        0   40101   10101   20101   30101
 
      793     743     792     794     843
        0   40101   10101   20101   30101
 
      794     744     793     795     844
        0   40101   10101   20101   30101
 
      795     745     794     796     845
        0   40101   10101   20101   30101
 
      796     746     795     797     846
        0   40101   10101   20101   30101
 
      797     747     796     798     847
        0   40101   10101   20101   30101
 
      798     748     797     799     848
        0   40101   10101   20101   30101
 
      799     749     798     800     849
        0   40101   10101   20101   30101
 
      800     750     799     850
        0   40101   10101   30101
 
      801     751     802     851
        0   40101   20101   30101
 
      802     752     801     803     852
        0   40101   10101   20101   30101
 
      803     753     802     804     853
        0   40101   10101   20101   30101
 
      804     754     803     805     854
        0   40101   10101   20101   30101
 
      805     755     804     806     855
        0   40101   10101   20101   30101
 
      806     756     805     807     856
        0   40101   10101   20101   30101
 
      807     757     806     808     857
        0   40101   10101   20101   30101
 
      808     758     807     809     858
        0   40101   10101   20101   30101
 
      809     759     808     810     859
        0   40101   10101   20101   30101
 
      810     760     809     811     860
        0   40101   10101   20101   30101
 
      811     761     810     812     861
        0   40101   10101   20101   30101
 
      812     762     811     813     862
        0   40101   10101   20101   30101
 
      813     763     812     814     863
        0   40101   10101   20101   30101
 
      814     764     813     815     864
        0   40101   10101   20101   30101
 
      815     765     814     816     865
        0   40101   10101   20101   30101
 
      816     766     815     817     866
        0   40101   10101   20101   30101
 
      817     767     816     818     867
        0   40101   10101   20101   30101
 
      818     768     817     819     868
        0   40101   10101   20101   30101
 
      819     769     818     820     869
        0   40101   10101   20101   30101
 
      820     770     819     821     870
        0   40101   10101   20101   30101
 
      821     771     820     822     871
        0   40101   10101   20101   30101
 
      822     772     821     823     872
        0   40101   10101   20101   30101
 
      823     773     822     824     873
        0   40101   10101   20101   30101
 
      824     774     823     825     874
        0   40101   10101   20101   30101
 
      825     775     824     826     875
        0   40101   10101   20101   30101
 
      826     776     825     827     876
        0   40101   10101   20101   30101
 
      827     777     826     828     877
        0   40101   10101   20101   30101
 
      828     778     827     829     878
        0   40101   10101   20101   30101
 
      829     779     828     830     879
        0   40101   10101   20101   30101
 
      830     780     829     831     880
        0   40101   10101   20101   30101
 
      831     781     830     832     881
        0   40101   10101   20101   30101
 
      832     782     831     833     882
        0   40101   10101   20101   30101
 
      833     783     832     834     883
        0   40101   10101   20101   30101
 
      834     784     833     835     884
        0   40101   10101   20101   30101
 
      835     785     834     836     885
        0   40101   10101   20101   30101
 
      836     786     835     837     886
        0   40101   10101   20101   30101
 
      837     787     836     838     887
        0   40101   10101   20101   30101
 
      838     788     837     839     888
        0   40101   10101   20101   30101
 
      839     789     838     840     889
        0   40101   10101   20101   30101
 
      840     790     839     841     890
        0   40101   10101   20101   30101
 
      841     791     840     842     891
        0   40101   10101   20101   30101
 
      842     792     841     843     892
        0   40101   10101   20101   30101
 
      843     793     842     844     893
        0   40101   10101   20101   30101
 
      844     794     843     845     894
        0   40101   10101   20101   30101
 
      845     795     844     846     895
        0   40101   10101   20101   30101
 
      846     796     845     847     896
        0   40101   10101   20101   30101
 
      847     797     846     848     897
        0   40101   10101   20101   30101
 
      848     798     847     849     898
        0   40101   10101   20101   30101
 
      849     799     848     850     899
        0   40101   10101   20101   30101
 
      850     800     849     900
        0   40101   10101   30101
 
      851     801     852     901
        0   40101   20101   30101
 
      852     802     851     853     902
        0   40101   10101   20101   30101
 
      853     803     852     854     903
        0   40101   10101   20101   30101
 
      854     804     853     855     904
        0   40101   10101   20101   30101
 
      855     805     854     856     905
        0   40101   10101   20101   30101
 
      856     806     855     857     906
        0   40101   10101   20101   30101
 
      857     807     856     858     907
        0   40101   10101   20101   30101
 
      858     808     857     859     908
        0   40101   10101   20101   30101
 
      859     809     858     860     909
        0   40101   10101   20101   30101
 
      860     810     859     861     910
        0   40101   10101   20101   30101
 
      861     811     860     862     911
        0   40101   10101   20101   30101
 
      862     812     861     863     912
        0   40101   10101   20101   30101
 
      863     813     862     864     913
        0   40101   10101   20101   30101
 
      864     814     863     865     914
        0   40101   10101   20101   30101
 
      865     815     864     866     915
        0   40101   10101   20101   30101
 
      866     816     865     867     916
        0   40101   10101   20101   30101
 
      867     817     866     868     917
        0   40101   10101   20101   30101
 
      868     818     867     869     918
        0   40101   10101   20101   30101
 
      869     819     868     870     919
        0   40101   10101   20101   30101
 
      870     820     869     871     920
        0   40101   10101   20101   30101
 
      871     821     870     872     921
        0   40101   10101   20101   30101
 
      872     822     871     873     922
        0   40101   10101   20101   30101
 
      873     823     872     874     923
        0   40101   10101   20101   30101
 
      874     824     873     875     924
        0   40101   10101   20101   30101
 
      875     825     874     876     925
        0   40101   10101   20101   30101
 
      876     826     875     877     926
        0   40101   10101   20101   30101
 
      877     827     876     878     927
        0   40101   10101   20101   30101
 
      878     828     877     879     928
        0   40101   10101   20101   30101
 
      879     829     878     880     929
        0   40101   10101   20101   30101
 
      880     830     879     881     930
        0   40101   10101   20101   30101
 
      881     831     880     882     931
        0   40101   10101   20101   30101
 
      882     832     881     883     932
        0   40101   10101   20101   30101
 
      883     833     882     884     933
        0   40101   10101   20101   30101
 
      884     834     883     885     934
        0   40101   10101   20101   30101
 
      885     835     884     886     935
        0   40101   10101   20101   30101
 
      886     836     885     887     936
        0   40101   10101   20101   30101
 
      887     837     886     888     937
        0   40101   10101   20101   30101
 
      888     838     887     889     938
        0   40101   10101   20101   30101
 
      889     839     888     890     939
        0   40101   10101   20101   30101
 
      890     840     889     891     940
        0   40101   10101   20101   30101
 
      891     841     890     892     941
        0   40101   10101   20101   30101
 
      892     842     891     893     942
        0   40101   10101   20101   30101
 
      893     843     892     894     943
        0   40101   10101   20101   30101
 
      894     844     893     895     944
        0   40101   10101   20101   30101
 
      895     845     894     896     945
        0   40101   10101   20101   30101
 
      896     846     895     897     946
        0   40101   10101   20101   30101
 
      897     847     896     898     947
        0   40101   10101   20101   30101
 
      898     848     897     899     948
        0   40101   10101   20101   30101
 
      899     849     898     900     949
        0   40101   10101   20101   30101
 
      900     850     899     950
        0   40101   10101   30101
 
      901     851     902     951
        0   40101   20101   30101
 
      902     852     901     903     952
        0   40101   10101   20101   30101
 
      903     853     902     904     953
        0   40101   10101   20101   30101
 
      904     854     903     905     954
        0   40101   10101   20101   30101
 
      905     855     904     906     955
        0   40101   10101   20101   30101
 
      906     856     905     907     956
        0   40101   10101   20101   30101
 
      907     857     906     908     957
        0   40101   10101   20101   30101
 
      908     858     907     909     958
        0   40101   10101   20101   30101
 
      909     859     908     910     959
        0   40101   10101   20101   30101
 
      910     860     909     911     960
        0   40101   10101   20101   30101
 
      911     861     910     912     961
        0   40101   10101   20101   30101
 
      912     862     911     913     962
        0   40101   10101   20101   30101
 
      913     863     912     914     963
        0   40101   10101   20101   30101
 
      914     864     913     915     964
        0   40101   10101   20101   30101
 
      915     865     914     916     965
        0   40101   10101   20101   30101
 
      916     866     915     917     966
        0   40101   10101   20101   30101
 
      917     867     916     918     967
        0   40101   10101   20101   30101
 
      918     868     917     919     968
        0   40101   10101   20101   30101
 
      919     869     918     920     969
        0   40101   10101   20101   30101
 
      920     870     919     921     970
        0   40101   10101   20101   30101
 
      921     871     920     922     971
        0   40101   10101   20101   30101
 
      922     872     921     923     972
        0   40101   10101   20101   30101
 
      923     873     922     924     973
        0   40101   10101   20101   30101
 
      924     874     923     925     974
        0   40101   10101   20101   30101
 
      925     875     924     926     975
        0   40101   10101   20101   30101
 
      926     876     925     927     976
        0   40101   10101   20101   30101
 
      927     877     926     928     977
        0   40101   10101   20101   30101
 
      928     878     927     929     978
        0   40101   10101   20101   30101
 
      929     879     928     930     979
        0   40101   10101   20101   30101
 
      930     880     929     931     980
        0   40101   10101   20101   30101
 
      931     881     930     932     981
        0   40101   10101   20101   30101
 
      932     882     931     933     982
        0   40101   10101   20101   30101
 
      933     883     932     934     983
        0   40101   10101   20101   30101
 
      934     884     933     935     984
        0   40101   10101   20101   30101
 
      935     885     934     936     985
        0   40101   10101   20101   30101
 
      936     886     935     937     986
        0   40101   10101   20101   30101
 
      937     887     936     938     987
        0   40101   10101   20101   30101
 
      938     888     937     939     988
        0   40101   10101   20101   30101
 
      939     889     938     940     989
[...]
 
     3767    3717    3766    3768    3817
        0   40101   10101   20101   30101
 
     3768    3718    3767    3769    3818
        0   40101   10101   20101   30101
 
     3769    3719    3768    3770    3819
        0   40101   10101   20101   30101
 
     3770    3720    3769    3771    3820
        0   40101   10101   20101   30101
 
     3771    3721    3770    3772    3821
        0   40101   10101   20101   30101
 
     3772    3722    3771    3773    3822
        0   40101   10101   20101   30101
 
     3773    3723    3772    3774    3823
        0   40101   10101   20101   30101
 
     3774    3724    3773    3775    3824
        0   40101   10101   20101   30101
 
     3775    3725    3774    3776    3825
        0   40101   10101   20101   30101
 
     3776    3726    3775    3777    3826
        0   40101   10101   20101   30101
 
     3777    3727    3776    3778    3827
        0   40101   10101   20101   30101
 
     3778    3728    3777    3779    3828
        0   40101   10101   20101   30101
 
     3779    3729    3778    3780    3829
        0   40101   10101   20101   30101
 
     3780    3730    3779    3781    3830
        0   40101   10101   20101   30101
 
     3781    3731    3780    3782    3831
        0   40101   10101   20101   30101
 
     3782    3732    3781    3783    3832
        0   40101   10101   20101   30101
 
     3783    3733    3782    3784    3833
        0   40101   10101   20101   30101
 
     3784    3734    3783    3785    3834
        0   40101   10101   20101   30101
 
     3785    3735    3784    3786    3835
        0   40101   10101   20101   30101
 
     3786    3736    3785    3787    3836
        0   40101   10101   20101   30101
 
     3787    3737    3786    3788    3837
        0   40101   10101   20101   30101
 
     3788    3738    3787    3789    3838
        0   40101   10101   20101   30101
 
     3789    3739    3788    3790    3839
        0   40101   10101   20101   30101
 
     3790    3740    3789    3791    3840
        0   40101   10101   20101   30101
 
     3791    3741    3790    3792    3841
        0   40101   10101   20101   30101
 
     3792    3742    3791    3793    3842
        0   40101   10101   20101   30101
 
     3793    3743    3792    3794    3843
        0   40101   10101   20101   30101
 
     3794    3744    3793    3795    3844
        0   40101   10101   20101   30101
 
     3795    3745    3794    3796    3845
        0   40101   10101   20101   30101
 
     3796    3746    3795    3797    3846
        0   40101   10101   20101   30101
 
     3797    3747    3796    3798    3847
        0   40101   10101   20101   30101
 
     3798    3748    3797    3799    3848
        0   40101   10101   20101   30101
 
     3799    3749    3798    3800    3849
        0   40101   10101   20101   30101
 
     3800    3750    3799    3850
        0   40101   10101   30101
 
     3801    3751    3802    3851
        0   40101   20101   30101
 
     3802    3752    3801    3803    3852
        0   40101   10101   20101   30101
 
     3803    3753    3802    3804    3853
        0   40101   10101   20101   30101
 
     3804    3754    3803    3805    3854
        0   40101   10101   20101   30101
 
     3805    3755    3804    3806    3855
        0   40101   10101   20101   30101
 
     3806    3756    3805    3807    3856
        0   40101   10101   20101   30101
 
     3807    3757    3806    3808    3857
        0   40101   10101   20101   30101
 
     3808    3758    3807    3809    3858
        0   40101   10101   20101   30101
 
     3809    3759    3808    3810    3859
        0   40101   10101   20101   30101
 
     3810    3760    3809    3811    3860
        0   40101   10101   20101   30101
 
     3811    3761    3810    3812    3861
        0   40101   10101   20101   30101
 
     3812    3762    3811    3813    3862
        0   40101   10101   20101   30101
 
     3813    3763    3812    3814    3863
        0   40101   10101   20101   30101
 
     3814    3764    3813    3815    3864
        0   40101   10101   20101   30101
 
     3815    3765    3814    3816    3865
        0   40101   10101   20101   30101
 
     3816    3766    3815    3817    3866
        0   40101   10101   20101   30101
 
     3817    3767    3816    3818    3867
        0   40101   10101   20101   30101
 
     3818    3768    3817    3819    3868
        0   40101   10101   20101   30101
 
     3819    3769    3818    3820    3869
        0   40101   10101   20101   30101
 
     3820    3770    3819    3821    3870
        0   40101   10101   20101   30101
 
     3821    3771    3820    3822    3871
        0   40101   10101   20101   30101
 
     3822    3772    3821    3823    3872
        0   40101   10101   20101   30101
 
     3823    3773    3822    3824    3873
        0   40101   10101   20101   30101
 
     3824    3774    3823    3825    3874
        0   40101   10101   20101   30101
 
     3825    3775    3824    3826    3875
        0   40101   10101   20101   30101
 
     3826    3776    3825    3827    3876
        0   40101   10101   20101   30101
 
     3827    3777    3826    3828    3877
        0   40101   10101   20101   30101
 
     3828    3778    3827    3829    3878
        0   40101   10101   20101   30101
 
     3829    3779    3828    3830    3879
        0   40101   10101   20101   30101
 
     3830    3780    3829    3831    3880
        0   40101   10101   20101   30101
 
     3831    3781    3830    3832    3881
        0   40101   10101   20101   30101
 
     3832    3782    3831    3833    3882
        0   40101   10101   20101   30101
 
     3833    3783    3832    3834    3883
        0   40101   10101   20101   30101
 
     3834    3784    3833    3835    3884
        0   40101   10101   20101   30101
 
     3835    3785    3834    3836    3885
        0   40101   10101   20101   30101
 
     3836    3786    3835    3837    3886
        0   40101   10101   20101   30101
 
     3837    3787    3836    3838    3887
        0   40101   10101   20101   30101
 
     3838    3788    3837    3839    3888
        0   40101   10101   20101   30101
 
     3839    3789    3838    3840    3889
        0   40101   10101   20101   30101
 
     3840    3790    3839    3841    3890
        0   40101   10101   20101   30101
 
     3841    3791    3840    3842    3891
        0   40101   10101   20101   30101
 
     3842    3792    3841    3843    3892
        0   40101   10101   20101   30101
 
     3843    3793    3842    3844    3893
        0   40101   10101   20101   30101
 
     3844    3794    3843    3845    3894
        0   40101   10101   20101   30101
 
     3845    3795    3844    3846    3895
        0   40101   10101   20101   30101
 
     3846    3796    3845    3847    3896
        0   40101   10101   20101   30101
 
     3847    3797    3846    3848    3897
        0   40101   10101   20101   30101
 
     3848    3798    3847    3849    3898
        0   40101   10101   20101   30101
 
     3849    3799    3848    3850    3899
        0   40101   10101   20101   30101
 
     3850    3800    3849    3900
        0   40101   10101   30101
 
     3851    3801    3852    3901
        0   40101   20101   30101
 
     3852    3802    3851    3853    3902
        0   40101   10101   20101   30101
 
     3853    3803    3852    3854    3903
        0   40101   10101   20101   30101
 
     3854    3804    3853    3855    3904
        0   40101   10101   20101   30101
 
     3855    3805    3854    3856    3905
        0   40101   10101   20101   30101
 
     3856    3806    3855    3857    3906
        0   40101   10101   20101   30101
 
     3857    3807    3856    3858    3907
        0   40101   10101   20101   30101
 
     3858    3808    3857    3859    3908
        0   40101   10101   20101   30101
 
     3859    3809    3858    3860    3909
        0   40101   10101   20101   30101
 
     3860    3810    3859    3861    3910
        0   40101   10101   20101   30101
 
     3861    3811    3860    3862    3911
        0   40101   10101   20101   30101
 
     3862    3812    3861    3863    3912
        0   40101   10101   20101   30101
 
     3863    3813    3862    3864    3913
        0   40101   10101   20101   30101
 
     3864    3814    3863    3865    3914
        0   40101   10101   20101   30101
 
     3865    3815    3864    3866    3915
        0   40101   10101   20101   30101
 
     3866    3816    3865    3867    3916
        0   40101   10101   20101   30101
 
     3867    3817    3866    3868    3917
        0   40101   10101   20101   30101
 
     3868    3818    3867    3869    3918
        0   40101   10101   20101   30101
 
     3869    3819    3868    3870    3919
        0   40101   10101   20101   30101
 
     3870    3820    3869    3871    3920
        0   40101   10101   20101   30101
 
     3871    3821    3870    3872    3921
        0   40101   10101   20101   30101
 
     3872    3822    3871    3873    3922
        0   40101   10101   20101   30101
 
     3873    3823    3872    3874    3923
        0   40101   10101   20101   30101
 
     3874    3824    3873    3875    3924
        0   40101   10101   20101   30101
 
     3875    3825    3874    3876    3925
        0   40101   10101   20101   30101
 
     3876    3826    3875    3877    3926
        0   40101   10101   20101   30101
 
     3877    3827    3876    3878    3927
        0   40101   10101   20101   30101
 
     3878    3828    3877    3879    3928
        0   40101   10101   20101   30101
 
     3879    3829    3878    3880    3929
        0   40101   10101   20101   30101
 
     3880    3830    3879    3881    3930
        0   40101   10101   20101   30101
 
     3881    3831    3880    3882    3931
        0   40101   10101   20101   30101
 
     3882    3832    3881    3883    3932
        0   40101   10101   20101   30101
 
     3883    3833    3882    3884    3933
        0   40101   10101   20101   30101
 
     3884    3834    3883    3885    3934
        0   40101   10101   20101   30101
 
     3885    3835    3884    3886    3935
        0   40101   10101   20101   30101
 
     3886    3836    3885    3887    3936
        0   40101   10101   20101   30101
 
     3887    3837    3886    3888    3937
        0   40101   10101   20101   30101
 
     3888    3838    3887    3889    3938
        0   40101   10101   20101   30101
 
     3889    3839    3888    3890    3939
        0   40101   10101   20101   30101
 
     3890    3840    3889    3891    3940
        0   40101   10101   20101   30101
 
     3891    3841    3890    3892    3941
        0   40101   10101   20101   30101
 
     3892    3842    3891    3893    3942
        0   40101   10101   20101   30101
 
     3893    3843    3892    3894    3943
        0   40101   10101   20101   30101
 
     3894    3844    3893    3895    3944
        0   40101   10101   20101   30101
 
     3895    3845    3894    3896    3945
        0   40101   10101   20101   30101
 
     3896    3846    3895    3897    3946
        0   40101   10101   20101   30101
 
     3897    3847    3896    3898    3947
        0   40101   10101   20101   30101
 
     3898    3848    3897    3899    3948
        0   40101   10101   20101   30101
 
     3899    3849    3898    3900    3949
        0   40101   10101   20101   30101
 
     3900    3850    3899    3950
        0   40101   10101   30101
 
     3901    3851    3902    3951
        0   40101   20101   30101
 
     3902    3852    3901    3903    3952
        0   40101   10101   20101   30101
 
     3903    3853    3902    3904    3953
        0   40101   10101   20101   30101
 
     3904    3854    3903    3905    3954
        0   40101   10101   20101   30101
 
     3905    3855    3904    3906    3955
        0   40101   10101   20101   30101
 
     3906    3856    3905    3907    3956
        0   40101   10101   20101   30101
 
     3907    3857    3906    3908    3957
        0   40101   10101   20101   30101
 
     3908    3858    3907    3909    3958
        0   40101   10101   20101   30101
 
     3909    3859    3908    3910    3959
        0   40101   10101   20101   30101
 
     3910    3860    3909    3911    3960
        0   40101   10101   20101   30101
 
     3911    3861    3910    3912    3961
        0   40101   10101   20101   30101
 
     3912    3862    3911    3913    3962
        0   40101   10101   20101   30101
 
     3913    3863    3912    3914    3963
        0   40101   10101   20101   30101
 
     3914    3864    3913    3915    3964
        0   40101   10101   20101   30101
 
     3915    3865    3914    3916    3965
        0   40101   10101   20101   30101
 
     3916    3866    3915    3917    3966
        0   40101   10101   20101   30101
 
     3917    3867    3916    3918    3967
        0   40101   10101   20101   30101
 
     3918    3868    3917    3919    3968
        0   40101   10101   20101   30101
 
     3919    3869    3918    3920    3969
        0   40101   10101   20101   30101
 
     3920    3870    3919    3921    3970
        0   40101   10101   20101   30101
 
     3921    3871    3920    3922    3971
        0   40101   10101   20101   30101
 
     3922    3872    3921    3923    3972
        0   40101   10101   20101   30101
 
     3923    3873    3922    3924    3973
        0   40101   10101   20101   30101
 
     3924    3874    3923    3925    3974
        0   40101   10101   20101   30101
 
     3925    3875    3924    3926    3975
        0   40101   10101   20101   30101
 
     3926    3876    3925    3927    3976
        0   40101   10101   20101   30101
 
     3927    3877    3926    3928    3977
        0   40101   10101   20101   30101
 
     3928    3878    3927    3929    3978
        0   40101   10101   20101   30101
 
     3929    3879    3928    3930    3979
        0   40101   10101   20101   30101
 
     3930    3880    3929    3931    3980
        0   40101   10101   20101   30101
 
     3931    3881    3930    3932    3981
        0   40101   10101   20101   30101
 
     3932    3882    3931    3933    3982
        0   40101   10101   20101   30101
 
     3933    3883    3932    3934    3983
        0   40101   10101   20101   30101
 
     3934    3884    3933    3935    3984
        0   40101   10101   20101   30101
 
     3935    3885    3934    3936    3985
        0   40101   10101   20101   30101
 
     3936    3886    3935    3937    3986
        0   40101   10101   20101   30101
 
     3937    3887    3936    3938    3987
        0   40101   10101   20101   30101
 
     3938    3888    3937    3939    3988
        0   40101   10101   20101   30101
 
     3939    3889    3938    3940    3989
        0   40101   10101   20101   30101
 
     3940    3890    3939    3941    3990
        0   40101   10101   20101   30101
 
     3941    3891    3940    3942    3991
        0   40101   10101   20101   30101
 
     3942    3892    3941    3943    3992
        0   40101   10101   20101   30101
 
     3943    3893    3942    3944    3993
        0   40101   10101   20101   30101
 
     3944    3894    3943    3945    3994
        0   40101   10101   20101   30101
 
     3945    3895    3944    3946    3995
        0   40101   10101   20101   30101
 
     3946    3896    3945    3947    3996
        0   40101   10101   20101   30101
 
     3947    3897    3946    3948    3997
        0   40101   10101   20101   30101
 
     3948    3898    3947    3949    3998
        0   40101   10101   20101   30101
 
     3949    3899    3948    3950    3999
        0   40101   10101   20101   30101
 
     3950    3900    3949    4000
        0   40101   10101   30101
 
     3951    3901    3952
        0   40101   20101
 
     3952    3902    3951    3953
        0   40101   10101   20101
 
     3953    3903    3952    3954
        0   40101   10101   20101
 
     3954    3904    3953    3955
        0   40101   10101   20101
 
     3955    3905    3954    3956
        0   40101   10101   20101
 
     3956    3906    3955    3957
        0   40101   10101   20101
 
     3957    3907    3956    3958
        0   40101   10101   20101
 
     3958    3908    3957    3959
        0   40101   10101   20101
 
     3959    3909    3958    3960
        0   40101   10101   20101
 
     3960    3910    3959    3961
        0   40101   10101   20101
 
     3961    3911    3960    3962
        0   40101   10101   20101
 
     3962    3912    3961    3963
        0   40101   10101   20101
 
     3963    3913    3962    3964
        0   40101   10101   20101
 
     3964    3914    3963    3965
        0   40101   10101   20101
 
     3965    3915    3964    3966
        0   40101   10101   20101
 
     3966    3916    3965    3967
        0   40101   10101   20101
 
     3967    3917    3966    3968
        0   40101   10101   20101
 
     3968    3918    3967    3969
        0   40101   10101   20101
 
     3969    3919    3968    3970
        0   40101   10101   20101
 
     3970    3920    3969    3971
        0   40101   10101   20101
 
     3971    3921    3970    3972
        0   40101   10101   20101
 
     3972    3922    3971    3973
        0   40101   10101   20101
 
     3973    3923    3972    3974
        0   40101   10101   20101
 
     3974    3924    3973    3975
        0   40101   10101   20101
 
     3975    3925    3974    3976
        0   40101   10101   20101
 
     3976    3926    3975    3977
        0   40101   10101   20101
 
     3977    3927    3976    3978
        0   40101   10101   20101
 
     3978    3928    3977    3979
        0   40101   10101   20101
 
     3979    3929    3978    3980
        0   40101   10101   20101
 
     3980    3930    3979    3981
        0   40101   10101   20101
 
     3981    3931    3980    3982
        0   40101   10101   20101
 
     3982    3932    3981    3983
        0   40101   10101   20101
 
     3983    3933    3982    3984
        0   40101   10101   20101
 
     3984    3934    3983    3985
        0   40101   10101   20101
 
     3985    3935    3984    3986
        0   40101   10101   20101
 
     3986    3936    3985    3987
        0   40101   10101   20101
 
     3987    3937    3986    3988
        0   40101   10101   20101
 
     3988    3938    3987    3989
        0   40101   10101   20101
 
     3989    3939    3988    3990
        0   40101   10101   20101
 
     3990    3940    3989    3991
        0   40101   10101   20101
 
     3991    3941    3990    3992
        0   40101   10101   20101
 
     3992    3942    3991    3993
        0   40101   10101   20101
 
     3993    3943    3992    3994
        0   40101   10101   20101
 
     3994    3944    3993    3995
        0   40101   10101   20101
 
     3995    3945    3994    3996
        0   40101   10101   20101
 
     3996    3946    3995    3997
        0   40101   10101   20101
 
     3997    3947    3996    3998
        0   40101   10101   20101
 
     3998    3948    3997    3999
        0   40101   10101   20101
 
     3999    3949    3998    4000
        0   40101   10101   20101
 
     4000    3950    3999
        0   40101   10101
 
Allocate budget reader component.
Open budget file in budget reader.
Allocate head reader component.
Open head file in head reader component.
Allocate MODPATH basic data component.
Read MODPATH basic data component.
Read the remainder of the MODPATH simulation data component.
Allocate particle tracking engine component.
Compute range of time steps. Prepare for time step loop                                                                             
Begin TIME_STEP_LOOP
Compute TSMAX                                                                                                                       
Begin TRACKING_INTERVAL_LOOP
Exit TRACKING_INTERVAL_LOOP
Exit TIME_STEP_LOOP
Write endpoint file.
Consolidating pathline segments.
Begin memory deallocation.
Memory deallocation complete.
